* SPICE3 file created from TMRDFFSNRNQX1.ext - technology: sky130A

.subckt TMRDFFSNRNQX1 Q SN RN D CLK VPB VNB
M1000 a_4447_943.t4 SN VPB.t71 pshort w=2u l=0.15u
+  ad=0p pd=0u as=0p ps=0u
M1001 VPB.t97 CLK a_6371_943.t5 pshort w=2u l=0.15u
+  ad=0p pd=0u as=0p ps=0u
M1002 a_7333_943.t3 RN VPB.t53 pshort w=2u l=0.15u
+  ad=0p pd=0u as=0p ps=0u
M1003 VPB.t48 D a_6049_1004.t1 pshort w=2u l=0.15u
+  ad=0p pd=0u as=0p ps=0u
M1004 VNB a_6049_1004.t8 a_6825_75.t0 nshort w=-1.605u l=1.765u
+  ad=4.9019p pd=41.07u as=0p ps=0u
M1005 a_7973_1004.t3 SN VPB.t80 pshort w=2u l=0.15u
+  ad=0p pd=0u as=0p ps=0u
M1006 a_18197_1005.t3 a_10219_943.t7 a_17708_181.t2 pshort w=2u l=0.15u
+  ad=0p pd=0u as=0p ps=0u
M1007 VPB.t37 a_4447_943.t7 a_17533_1005.t4 pshort w=2u l=0.15u
+  ad=0p pd=0u as=0p ps=0u
M1008 VNB a_4125_1004.t8 a_4901_75.t0 nshort w=-1.605u l=1.765u
+  ad=0p pd=0u as=0p ps=0u
M1009 VPB.t47 D a_277_1004.t2 pshort w=2u l=0.15u
+  ad=0p pd=0u as=0p ps=0u
M1010 VPB.t44 D a_11821_1004.t1 pshort w=2u l=0.15u
+  ad=0p pd=0u as=0p ps=0u
M1011 VNB a_4447_943.t15 a_17428_73.t0 nshort w=-1.605u l=1.765u
+  ad=0p pd=0u as=0p ps=0u
M1012 VPB.t66 RN a_15669_1004.t4 pshort w=2u l=0.15u
+  ad=0p pd=0u as=0p ps=0u
M1013 a_599_943.t3 CLK VPB.t90 pshort w=2u l=0.15u
+  ad=0p pd=0u as=0p ps=0u
M1014 VPB.t59 RN a_9897_1004.t4 pshort w=2u l=0.15u
+  ad=0p pd=0u as=0p ps=0u
M1015 VPB.t99 CLK a_1561_943.t5 pshort w=2u l=0.15u
+  ad=0p pd=0u as=0p ps=0u
M1016 a_11821_1004.t5 a_12143_943.t8 VPB.t1 pshort w=2u l=0.15u
+  ad=0p pd=0u as=0p ps=0u
M1017 VPB.t52 a_13105_943.t7 a_13745_1004.t1 pshort w=2u l=0.15u
+  ad=0p pd=0u as=0p ps=0u
M1018 VNB D a_11635_75.t0 nshort w=-1.605u l=1.765u
+  ad=0p pd=0u as=0p ps=0u
M1019 VPB.t9 a_277_1004.t7 a_2201_1004.t6 pshort w=2u l=0.15u
+  ad=0p pd=0u as=0p ps=0u
M1020 a_7333_943.t6 CLK VPB.t88 pshort w=2u l=0.15u
+  ad=0p pd=0u as=0p ps=0u
M1021 a_10219_943.t2 SN VPB.t78 pshort w=2u l=0.15u
+  ad=0p pd=0u as=0p ps=0u
M1022 VPB.t85 a_7333_943.t7 a_6371_943.t3 pshort w=2u l=0.15u
+  ad=0p pd=0u as=0p ps=0u
M1023 VPB.t92 CLK a_12143_943.t6 pshort w=2u l=0.15u
+  ad=0p pd=0u as=0p ps=0u
M1024 VPB.t109 a_17708_181.t7 Q.t1 pshort w=2u l=0.15u
+  ad=0p pd=0u as=0p ps=0u
M1025 a_13105_943.t3 RN VPB.t70 pshort w=2u l=0.15u
+  ad=0p pd=0u as=0p ps=0u
M1026 VNB a_6049_1004.t10 a_7787_75.t0 nshort w=-1.605u l=1.765u
+  ad=0p pd=0u as=0p ps=0u
M1027 VNB a_6371_943.t10 a_9711_75.t0 nshort w=-1.605u l=1.765u
+  ad=0p pd=0u as=0p ps=0u
M1028 VNB D a_5863_75.t0 nshort w=-1.605u l=1.765u
+  ad=0p pd=0u as=0p ps=0u
M1029 VPB.t54 RN a_277_1004.t6 pshort w=2u l=0.15u
+  ad=0p pd=0u as=0p ps=0u
M1030 a_6371_943.t6 a_6049_1004.t7 VPB.t108 pshort w=2u l=0.15u
+  ad=0p pd=0u as=0p ps=0u
M1031 VPB.t25 a_7973_1004.t7 a_7333_943.t0 pshort w=2u l=0.15u
+  ad=0p pd=0u as=0p ps=0u
M1032 VPB.t113 a_9897_1004.t7 a_10219_943.t6 pshort w=2u l=0.15u
+  ad=0p pd=0u as=0p ps=0u
M1033 a_17533_1005.t3 a_4447_943.t9 VPB.t0 pshort w=2u l=0.15u
+  ad=0p pd=0u as=0p ps=0u
M1034 a_12143_943.t5 CLK VPB.t89 pshort w=2u l=0.15u
+  ad=0p pd=0u as=0p ps=0u
M1035 a_599_943.t6 a_1561_943.t8 VPB.t105 pshort w=2u l=0.15u
+  ad=0p pd=0u as=0p ps=0u
M1036 a_15991_943.t0 a_15669_1004.t8 VPB.t18 pshort w=2u l=0.15u
+  ad=0p pd=0u as=0p ps=0u
M1037 VPB.t63 RN a_1561_943.t2 pshort w=2u l=0.15u
+  ad=0p pd=0u as=0p ps=0u
M1038 a_9897_1004.t6 a_6371_943.t7 VPB.t19 pshort w=2u l=0.15u
+  ad=0p pd=0u as=0p ps=0u
M1039 VNB a_11821_1004.t9 a_12597_75.t0 nshort w=-1.605u l=1.765u
+  ad=0p pd=0u as=0p ps=0u
M1040 a_4125_1004.t3 a_599_943.t7 VPB.t21 pshort w=2u l=0.15u
+  ad=0p pd=0u as=0p ps=0u
M1041 VPB.t82 SN a_2201_1004.t4 pshort w=2u l=0.15u
+  ad=0p pd=0u as=0p ps=0u
M1042 VNB a_13745_1004.t9 a_14521_75.t0 nshort w=-1.605u l=1.765u
+  ad=0p pd=0u as=0p ps=0u
M1043 a_4125_1004.t5 a_4447_943.t10 VPB.t3 pshort w=2u l=0.15u
+  ad=0p pd=0u as=0p ps=0u
M1044 VNB a_9897_1004.t9 a_10673_75.t0 nshort w=-1.605u l=1.765u
+  ad=0p pd=0u as=0p ps=0u
M1045 VPB.t101 a_6371_943.t8 a_6049_1004.t5 pshort w=2u l=0.15u
+  ad=0p pd=0u as=0p ps=0u
M1046 a_18197_1005.t6 a_4447_943.t11 a_17533_1005.t6 pshort w=2u l=0.15u
+  ad=0p pd=0u as=0p ps=0u
M1047 a_1561_943.t4 CLK VPB.t98 pshort w=2u l=0.15u
+  ad=0p pd=0u as=0p ps=0u
M1048 VNB a_7973_1004.t9 a_8749_75.t0 nshort w=-1.605u l=1.765u
+  ad=0p pd=0u as=0p ps=0u
M1049 VPB.t51 a_599_943.t8 a_277_1004.t4 pshort w=2u l=0.15u
+  ad=0p pd=0u as=0p ps=0u
M1050 VNB D a_91_75.t0 nshort w=-1.605u l=1.765u
+  ad=0p pd=0u as=0p ps=0u
M1051 a_13745_1004.t4 SN VPB.t72 pshort w=2u l=0.15u
+  ad=0p pd=0u as=0p ps=0u
M1052 a_17533_1005.t2 a_10219_943.t8 VPB.t14 pshort w=2u l=0.15u
+  ad=0p pd=0u as=0p ps=0u
M1053 Q a_17708_181.t8 VNB.t19 nshort w=-1.605u l=1.765u
+  ad=0.1791p pd=1.57u as=0p ps=0u
M1054 a_12143_943.t4 a_11821_1004.t7 VPB.t83 pshort w=2u l=0.15u
+  ad=0p pd=0u as=0p ps=0u
M1055 VPB.t6 a_13745_1004.t7 a_13105_943.t1 pshort w=2u l=0.15u
+  ad=0p pd=0u as=0p ps=0u
M1056 a_15991_943.t3 SN VPB.t76 pshort w=2u l=0.15u
+  ad=0p pd=0u as=0p ps=0u
M1057 a_15669_1004.t6 a_12143_943.t10 VPB.t84 pshort w=2u l=0.15u
+  ad=0p pd=0u as=0p ps=0u
M1058 a_4125_1004.t1 RN VPB.t67 pshort w=2u l=0.15u
+  ad=0p pd=0u as=0p ps=0u
M1059 VNB a_11821_1004.t12 a_13559_75.t0 nshort w=-1.605u l=1.765u
+  ad=0p pd=0u as=0p ps=0u
M1060 VPB.t35 a_1561_943.t11 a_2201_1004.t1 pshort w=2u l=0.15u
+  ad=0p pd=0u as=0p ps=0u
M1061 VPB.t60 RN a_6049_1004.t3 pshort w=2u l=0.15u
+  ad=0p pd=0u as=0p ps=0u
M1062 a_7333_943.t1 a_7973_1004.t8 VPB.t30 pshort w=2u l=0.15u
+  ad=0p pd=0u as=0p ps=0u
M1063 a_7973_1004.t5 a_7333_943.t10 VPB.t33 pshort w=2u l=0.15u
+  ad=0p pd=0u as=0p ps=0u
M1064 a_9897_1004.t1 a_10219_943.t11 VPB.t32 pshort w=2u l=0.15u
+  ad=0p pd=0u as=0p ps=0u
M1065 VPB.t106 a_13105_943.t8 a_15991_943.t5 pshort w=2u l=0.15u
+  ad=0p pd=0u as=0p ps=0u
M1066 VNB a_12143_943.t7 a_15483_75.t0 nshort w=-1.605u l=1.765u
+  ad=0p pd=0u as=0p ps=0u
M1067 a_1561_943.t0 a_2201_1004.t8 VPB.t16 pshort w=2u l=0.15u
+  ad=0p pd=0u as=0p ps=0u
M1068 a_18197_1005.t7 a_15991_943.t8 a_17533_1005.t7 pshort w=2u l=0.15u
+  ad=0p pd=0u as=0p ps=0u
M1069 VPB.t40 a_4125_1004.t7 a_4447_943.t2 pshort w=2u l=0.15u
+  ad=0p pd=0u as=0p ps=0u
M1070 a_6371_943.t4 CLK VPB.t91 pshort w=2u l=0.15u
+  ad=0p pd=0u as=0p ps=0u
M1071 VPB.t95 CLK a_7333_943.t5 pshort w=2u l=0.15u
+  ad=0p pd=0u as=0p ps=0u
M1072 a_6049_1004.t0 D VPB.t46 pshort w=2u l=0.15u
+  ad=0p pd=0u as=0p ps=0u
M1073 a_17708_181.t3 a_10219_943.t12 a_18197_1005.t2 pshort w=2u l=0.15u
+  ad=0p pd=0u as=0p ps=0u
M1074 a_277_1004.t1 D VPB.t43 pshort w=2u l=0.15u
+  ad=0p pd=0u as=0p ps=0u
M1075 VPB.t94 CLK a_13105_943.t6 pshort w=2u l=0.15u
+  ad=0p pd=0u as=0p ps=0u
M1076 a_15991_943.t6 a_13105_943.t10 VPB.t111 pshort w=2u l=0.15u
+  ad=0p pd=0u as=0p ps=0u
M1077 VNB a_15669_1004.t7 a_16445_75.t0 nshort w=-1.605u l=1.765u
+  ad=0p pd=0u as=0p ps=0u
M1078 VPB.t15 a_11821_1004.t8 a_13745_1004.t6 pshort w=2u l=0.15u
+  ad=0p pd=0u as=0p ps=0u
M1079 a_10219_943.t5 a_7333_943.t12 VPB.t11 pshort w=2u l=0.15u
+  ad=0p pd=0u as=0p ps=0u
M1080 a_15669_1004.t3 RN VPB.t65 pshort w=2u l=0.15u
+  ad=0p pd=0u as=0p ps=0u
M1081 VPB.t24 a_13105_943.t11 a_12143_943.t1 pshort w=2u l=0.15u
+  ad=0p pd=0u as=0p ps=0u
M1082 VPB.t8 a_277_1004.t10 a_599_943.t5 pshort w=2u l=0.15u
+  ad=0p pd=0u as=0p ps=0u
M1083 a_9897_1004.t3 RN VPB.t58 pshort w=2u l=0.15u
+  ad=0p pd=0u as=0p ps=0u
M1084 VPB.t69 RN a_11821_1004.t3 pshort w=2u l=0.15u
+  ad=0p pd=0u as=0p ps=0u
M1085 VPB.t38 a_1561_943.t12 a_599_943.t0 pshort w=2u l=0.15u
+  ad=0p pd=0u as=0p ps=0u
M1086 a_13745_1004.t0 a_13105_943.t12 VPB.t36 pshort w=2u l=0.15u
+  ad=0p pd=0u as=0p ps=0u
M1087 VPB.t79 SN a_4447_943.t3 pshort w=2u l=0.15u
+  ad=0p pd=0u as=0p ps=0u
M1088 a_18197_1005.t4 a_15991_943.t9 a_17708_181.t6 pshort w=2u l=0.15u
+  ad=0p pd=0u as=0p ps=0u
M1089 VPB.t103 a_15991_943.t10 a_15669_1004.t1 pshort w=2u l=0.15u
+  ad=0p pd=0u as=0p ps=0u
M1090 a_6371_943.t1 a_7333_943.t13 VPB.t26 pshort w=2u l=0.15u
+  ad=0p pd=0u as=0p ps=0u
M1091 Q.t0 a_17708_181.t9 VPB.t87 pshort w=2u l=0.15u
+  ad=0p pd=0u as=0p ps=0u
M1092 VPB.t57 RN a_7333_943.t2 pshort w=2u l=0.15u
+  ad=0p pd=0u as=0p ps=0u
M1093 VPB.t75 SN a_7973_1004.t2 pshort w=2u l=0.15u
+  ad=0p pd=0u as=0p ps=0u
M1094 a_277_1004.t5 RN VPB.t55 pshort w=2u l=0.15u
+  ad=0p pd=0u as=0p ps=0u
M1095 a_11821_1004.t2 RN VPB.t56 pshort w=2u l=0.15u
+  ad=0p pd=0u as=0p ps=0u
M1096 VNB a_277_1004.t8 a_2015_75.t0 nshort w=-1.605u l=1.765u
+  ad=0p pd=0u as=0p ps=0u
M1097 VPB.t73 SN a_13745_1004.t3 pshort w=2u l=0.15u
+  ad=0p pd=0u as=0p ps=0u
M1098 a_10219_943.t0 a_9897_1004.t8 VPB.t49 pshort w=2u l=0.15u
+  ad=0p pd=0u as=0p ps=0u
M1099 VPB.t96 CLK a_599_943.t2 pshort w=2u l=0.15u
+  ad=0p pd=0u as=0p ps=0u
M1100 VPB.t107 a_12143_943.t11 a_11821_1004.t4 pshort w=2u l=0.15u
+  ad=0p pd=0u as=0p ps=0u
M1101 a_1561_943.t1 RN VPB.t62 pshort w=2u l=0.15u
+  ad=0p pd=0u as=0p ps=0u
M1102 VPB.t22 a_1561_943.t13 a_4447_943.t0 pshort w=2u l=0.15u
+  ad=0p pd=0u as=0p ps=0u
M1103 a_2201_1004.t3 SN VPB.t81 pshort w=2u l=0.15u
+  ad=0p pd=0u as=0p ps=0u
M1104 VPB.t68 RN a_4125_1004.t0 pshort w=2u l=0.15u
+  ad=0p pd=0u as=0p ps=0u
M1105 a_12143_943.t0 a_13105_943.t14 VPB.t23 pshort w=2u l=0.15u
+  ad=0p pd=0u as=0p ps=0u
M1106 VPB.t28 a_6049_1004.t9 a_7973_1004.t1 pshort w=2u l=0.15u
+  ad=0p pd=0u as=0p ps=0u
M1107 VPB.t64 RN a_13105_943.t2 pshort w=2u l=0.15u
+  ad=0p pd=0u as=0p ps=0u
M1108 a_599_943.t4 a_277_1004.t11 VPB.t7 pshort w=2u l=0.15u
+  ad=0p pd=0u as=0p ps=0u
M1109 a_277_1004.t0 a_599_943.t10 VPB.t20 pshort w=2u l=0.15u
+  ad=0p pd=0u as=0p ps=0u
M1110 a_11821_1004.t0 D VPB.t45 pshort w=2u l=0.15u
+  ad=0p pd=0u as=0p ps=0u
M1111 VNB a_2201_1004.t7 a_2977_75.t0 nshort w=-1.605u l=1.765u
+  ad=0p pd=0u as=0p ps=0u
M1112 VNB a_15991_943.t12 a_18760_73.t0 nshort w=-1.605u l=1.765u
+  ad=0p pd=0u as=0p ps=0u
M1113 VNB a_4447_943.t12 a_18094_73.t0 nshort w=-1.605u l=1.765u
+  ad=0p pd=0u as=0p ps=0u
M1114 a_13105_943.t0 a_13745_1004.t8 VPB.t5 pshort w=2u l=0.15u
+  ad=0p pd=0u as=0p ps=0u
M1115 VPB.t50 a_15669_1004.t9 a_15991_943.t1 pshort w=2u l=0.15u
+  ad=0p pd=0u as=0p ps=0u
M1116 VNB a_277_1004.t9 a_1053_75.t0 nshort w=-1.605u l=1.765u
+  ad=0p pd=0u as=0p ps=0u
M1117 a_7973_1004.t0 a_6049_1004.t11 VPB.t13 pshort w=2u l=0.15u
+  ad=0p pd=0u as=0p ps=0u
M1118 VPB.t102 a_6371_943.t11 a_9897_1004.t5 pshort w=2u l=0.15u
+  ad=0p pd=0u as=0p ps=0u
M1119 a_2201_1004.t5 a_277_1004.t12 VPB.t41 pshort w=2u l=0.15u
+  ad=0p pd=0u as=0p ps=0u
M1120 VPB.t2 a_7333_943.t14 a_10219_943.t4 pshort w=2u l=0.15u
+  ad=0p pd=0u as=0p ps=0u
M1121 a_2201_1004.t0 a_1561_943.t14 VPB.t104 pshort w=2u l=0.15u
+  ad=0p pd=0u as=0p ps=0u
M1122 VPB.t39 a_599_943.t12 a_4125_1004.t2 pshort w=2u l=0.15u
+  ad=0p pd=0u as=0p ps=0u
M1123 VPB.t31 a_4447_943.t13 a_4125_1004.t4 pshort w=2u l=0.15u
+  ad=0p pd=0u as=0p ps=0u
M1124 a_6049_1004.t2 RN VPB.t61 pshort w=2u l=0.15u
+  ad=0p pd=0u as=0p ps=0u
M1125 a_17533_1005.t5 a_4447_943.t14 a_18197_1005.t5 pshort w=2u l=0.15u
+  ad=0p pd=0u as=0p ps=0u
M1126 a_4447_943.t5 a_4125_1004.t9 VPB.t100 pshort w=2u l=0.15u
+  ad=0p pd=0u as=0p ps=0u
M1127 VPB.t27 a_6049_1004.t12 a_6371_943.t2 pshort w=2u l=0.15u
+  ad=0p pd=0u as=0p ps=0u
M1128 a_4447_943.t6 a_1561_943.t15 VPB.t110 pshort w=2u l=0.15u
+  ad=0p pd=0u as=0p ps=0u
M1129 VNB a_599_943.t9 a_3939_75.t0 nshort w=-1.605u l=1.765u
+  ad=0p pd=0u as=0p ps=0u
M1130 a_15669_1004.t0 a_15991_943.t13 VPB.t4 pshort w=2u l=0.15u
+  ad=0p pd=0u as=0p ps=0u
M1131 VPB.t42 a_11821_1004.t10 a_12143_943.t3 pshort w=2u l=0.15u
+  ad=0p pd=0u as=0p ps=0u
M1132 VPB.t29 a_10219_943.t14 a_17533_1005.t1 pshort w=2u l=0.15u
+  ad=0p pd=0u as=0p ps=0u
M1133 a_13105_943.t5 CLK VPB.t93 pshort w=2u l=0.15u
+  ad=0p pd=0u as=0p ps=0u
M1134 VPB.t77 SN a_15991_943.t2 pshort w=2u l=0.15u
+  ad=0p pd=0u as=0p ps=0u
M1135 VPB.t74 SN a_10219_943.t1 pshort w=2u l=0.15u
+  ad=0p pd=0u as=0p ps=0u
M1136 a_13745_1004.t5 a_11821_1004.t11 VPB.t10 pshort w=2u l=0.15u
+  ad=0p pd=0u as=0p ps=0u
M1137 VPB.t12 a_12143_943.t12 a_15669_1004.t5 pshort w=2u l=0.15u
+  ad=0p pd=0u as=0p ps=0u
M1138 a_6049_1004.t4 a_6371_943.t12 VPB.t86 pshort w=2u l=0.15u
+  ad=0p pd=0u as=0p ps=0u
M1139 VPB.t34 a_7333_943.t15 a_7973_1004.t4 pshort w=2u l=0.15u
+  ad=0p pd=0u as=0p ps=0u
M1140 VPB.t17 a_10219_943.t15 a_9897_1004.t0 pshort w=2u l=0.15u
+  ad=0p pd=0u as=0p ps=0u
M1141 VPB.t112 a_2201_1004.t9 a_1561_943.t6 pshort w=2u l=0.15u
+  ad=0p pd=0u as=0p ps=0u
M1142 a_17708_181.t0 a_15991_943.t14 a_18197_1005.t0 pshort w=2u l=0.15u
+  ad=0p pd=0u as=0p ps=0u
M1143 a_17533_1005.t0 a_15991_943.t15 a_18197_1005.t1 pshort w=2u l=0.15u
+  ad=0p pd=0u as=0p ps=0u











R0 VPB VPB.n1729 126.832
R1 VPB.n40 VPB.n38 94.117
R2 VPB.n1651 VPB.n1649 94.117
R3 VPB.n1568 VPB.n1566 94.117
R4 VPB.n1485 VPB.n1483 94.117
R5 VPB.n1402 VPB.n1400 94.117
R6 VPB.n1319 VPB.n1317 94.117
R7 VPB.n1236 VPB.n1234 94.117
R8 VPB.n1153 VPB.n1151 94.117
R9 VPB.n1070 VPB.n1068 94.117
R10 VPB.n987 VPB.n985 94.117
R11 VPB.n114 VPB.n112 94.117
R12 VPB.n884 VPB.n882 94.117
R13 VPB.n801 VPB.n799 94.117
R14 VPB.n718 VPB.n716 94.117
R15 VPB.n635 VPB.n633 94.117
R16 VPB.n552 VPB.n550 94.117
R17 VPB.n469 VPB.n467 94.117
R18 VPB.n386 VPB.n384 94.117
R19 VPB.n323 VPB.n321 94.117
R20 VPB.n268 VPB.n266 94.117
R21 VPB.n213 VPB.n211 91.036
R22 VPB.n399 VPB.n398 80.104
R23 VPB.n482 VPB.n481 80.104
R24 VPB.n565 VPB.n564 80.104
R25 VPB.n648 VPB.n647 80.104
R26 VPB.n731 VPB.n730 80.104
R27 VPB.n814 VPB.n813 80.104
R28 VPB.n897 VPB.n896 80.104
R29 VPB.n124 VPB.n123 80.104
R30 VPB.n1000 VPB.n999 80.104
R31 VPB.n1083 VPB.n1082 80.104
R32 VPB.n1166 VPB.n1165 80.104
R33 VPB.n1249 VPB.n1248 80.104
R34 VPB.n1332 VPB.n1331 80.104
R35 VPB.n1415 VPB.n1414 80.104
R36 VPB.n1498 VPB.n1497 80.104
R37 VPB.n1581 VPB.n1580 80.104
R38 VPB.n1664 VPB.n1663 80.104
R39 VPB.n50 VPB.n49 80.104
R40 VPB.n174 VPB.n168 76.136
R41 VPB.n174 VPB.n173 76
R42 VPB.n178 VPB.n177 76
R43 VPB.n184 VPB.n183 76
R44 VPB.n188 VPB.n187 76
R45 VPB.n215 VPB.n214 76
R46 VPB.n219 VPB.n218 76
R47 VPB.n223 VPB.n222 76
R48 VPB.n227 VPB.n226 76
R49 VPB.n231 VPB.n230 76
R50 VPB.n235 VPB.n234 76
R51 VPB.n239 VPB.n238 76
R52 VPB.n243 VPB.n242 76
R53 VPB.n270 VPB.n269 76
R54 VPB.n274 VPB.n273 76
R55 VPB.n278 VPB.n277 76
R56 VPB.n282 VPB.n281 76
R57 VPB.n286 VPB.n285 76
R58 VPB.n290 VPB.n289 76
R59 VPB.n294 VPB.n293 76
R60 VPB.n298 VPB.n297 76
R61 VPB.n325 VPB.n324 76
R62 VPB.n330 VPB.n329 76
R63 VPB.n335 VPB.n334 76
R64 VPB.n342 VPB.n341 76
R65 VPB.n347 VPB.n346 76
R66 VPB.n352 VPB.n351 76
R67 VPB.n357 VPB.n356 76
R68 VPB.n361 VPB.n360 76
R69 VPB.n388 VPB.n387 76
R70 VPB.n392 VPB.n391 76
R71 VPB.n397 VPB.n396 76
R72 VPB.n402 VPB.n401 76
R73 VPB.n409 VPB.n408 76
R74 VPB.n414 VPB.n413 76
R75 VPB.n419 VPB.n418 76
R76 VPB.n426 VPB.n425 76
R77 VPB.n431 VPB.n430 76
R78 VPB.n436 VPB.n435 76
R79 VPB.n440 VPB.n439 76
R80 VPB.n444 VPB.n443 76
R81 VPB.n471 VPB.n470 76
R82 VPB.n475 VPB.n474 76
R83 VPB.n480 VPB.n479 76
R84 VPB.n485 VPB.n484 76
R85 VPB.n492 VPB.n491 76
R86 VPB.n497 VPB.n496 76
R87 VPB.n502 VPB.n501 76
R88 VPB.n509 VPB.n508 76
R89 VPB.n514 VPB.n513 76
R90 VPB.n519 VPB.n518 76
R91 VPB.n523 VPB.n522 76
R92 VPB.n527 VPB.n526 76
R93 VPB.n554 VPB.n553 76
R94 VPB.n558 VPB.n557 76
R95 VPB.n563 VPB.n562 76
R96 VPB.n568 VPB.n567 76
R97 VPB.n575 VPB.n574 76
R98 VPB.n580 VPB.n579 76
R99 VPB.n585 VPB.n584 76
R100 VPB.n592 VPB.n591 76
R101 VPB.n597 VPB.n596 76
R102 VPB.n602 VPB.n601 76
R103 VPB.n606 VPB.n605 76
R104 VPB.n610 VPB.n609 76
R105 VPB.n637 VPB.n636 76
R106 VPB.n641 VPB.n640 76
R107 VPB.n646 VPB.n645 76
R108 VPB.n651 VPB.n650 76
R109 VPB.n658 VPB.n657 76
R110 VPB.n663 VPB.n662 76
R111 VPB.n668 VPB.n667 76
R112 VPB.n675 VPB.n674 76
R113 VPB.n680 VPB.n679 76
R114 VPB.n685 VPB.n684 76
R115 VPB.n689 VPB.n688 76
R116 VPB.n693 VPB.n692 76
R117 VPB.n720 VPB.n719 76
R118 VPB.n724 VPB.n723 76
R119 VPB.n729 VPB.n728 76
R120 VPB.n734 VPB.n733 76
R121 VPB.n741 VPB.n740 76
R122 VPB.n746 VPB.n745 76
R123 VPB.n751 VPB.n750 76
R124 VPB.n758 VPB.n757 76
R125 VPB.n763 VPB.n762 76
R126 VPB.n768 VPB.n767 76
R127 VPB.n772 VPB.n771 76
R128 VPB.n776 VPB.n775 76
R129 VPB.n803 VPB.n802 76
R130 VPB.n807 VPB.n806 76
R131 VPB.n812 VPB.n811 76
R132 VPB.n817 VPB.n816 76
R133 VPB.n824 VPB.n823 76
R134 VPB.n829 VPB.n828 76
R135 VPB.n834 VPB.n833 76
R136 VPB.n841 VPB.n840 76
R137 VPB.n846 VPB.n845 76
R138 VPB.n851 VPB.n850 76
R139 VPB.n855 VPB.n854 76
R140 VPB.n859 VPB.n858 76
R141 VPB.n886 VPB.n885 76
R142 VPB.n890 VPB.n889 76
R143 VPB.n895 VPB.n894 76
R144 VPB.n900 VPB.n899 76
R145 VPB.n907 VPB.n906 76
R146 VPB.n912 VPB.n911 76
R147 VPB.n917 VPB.n916 76
R148 VPB.n924 VPB.n923 76
R149 VPB.n929 VPB.n928 76
R150 VPB.n934 VPB.n933 76
R151 VPB.n949 VPB.n945 76
R152 VPB.n954 VPB.n953 76
R153 VPB.n958 VPB.n957 76
R154 VPB.n962 VPB.n961 76
R155 VPB.n989 VPB.n988 76
R156 VPB.n993 VPB.n992 76
R157 VPB.n998 VPB.n997 76
R158 VPB.n1003 VPB.n1002 76
R159 VPB.n1010 VPB.n1009 76
R160 VPB.n1015 VPB.n1014 76
R161 VPB.n1020 VPB.n1019 76
R162 VPB.n1027 VPB.n1026 76
R163 VPB.n1032 VPB.n1031 76
R164 VPB.n1037 VPB.n1036 76
R165 VPB.n1041 VPB.n1040 76
R166 VPB.n1045 VPB.n1044 76
R167 VPB.n1072 VPB.n1071 76
R168 VPB.n1076 VPB.n1075 76
R169 VPB.n1081 VPB.n1080 76
R170 VPB.n1086 VPB.n1085 76
R171 VPB.n1093 VPB.n1092 76
R172 VPB.n1098 VPB.n1097 76
R173 VPB.n1103 VPB.n1102 76
R174 VPB.n1110 VPB.n1109 76
R175 VPB.n1115 VPB.n1114 76
R176 VPB.n1120 VPB.n1119 76
R177 VPB.n1124 VPB.n1123 76
R178 VPB.n1128 VPB.n1127 76
R179 VPB.n1155 VPB.n1154 76
R180 VPB.n1159 VPB.n1158 76
R181 VPB.n1164 VPB.n1163 76
R182 VPB.n1169 VPB.n1168 76
R183 VPB.n1176 VPB.n1175 76
R184 VPB.n1181 VPB.n1180 76
R185 VPB.n1186 VPB.n1185 76
R186 VPB.n1193 VPB.n1192 76
R187 VPB.n1198 VPB.n1197 76
R188 VPB.n1203 VPB.n1202 76
R189 VPB.n1207 VPB.n1206 76
R190 VPB.n1211 VPB.n1210 76
R191 VPB.n1238 VPB.n1237 76
R192 VPB.n1242 VPB.n1241 76
R193 VPB.n1247 VPB.n1246 76
R194 VPB.n1252 VPB.n1251 76
R195 VPB.n1259 VPB.n1258 76
R196 VPB.n1264 VPB.n1263 76
R197 VPB.n1269 VPB.n1268 76
R198 VPB.n1276 VPB.n1275 76
R199 VPB.n1281 VPB.n1280 76
R200 VPB.n1286 VPB.n1285 76
R201 VPB.n1290 VPB.n1289 76
R202 VPB.n1294 VPB.n1293 76
R203 VPB.n1321 VPB.n1320 76
R204 VPB.n1325 VPB.n1324 76
R205 VPB.n1330 VPB.n1329 76
R206 VPB.n1335 VPB.n1334 76
R207 VPB.n1342 VPB.n1341 76
R208 VPB.n1347 VPB.n1346 76
R209 VPB.n1352 VPB.n1351 76
R210 VPB.n1359 VPB.n1358 76
R211 VPB.n1364 VPB.n1363 76
R212 VPB.n1369 VPB.n1368 76
R213 VPB.n1373 VPB.n1372 76
R214 VPB.n1377 VPB.n1376 76
R215 VPB.n1404 VPB.n1403 76
R216 VPB.n1408 VPB.n1407 76
R217 VPB.n1413 VPB.n1412 76
R218 VPB.n1418 VPB.n1417 76
R219 VPB.n1425 VPB.n1424 76
R220 VPB.n1430 VPB.n1429 76
R221 VPB.n1435 VPB.n1434 76
R222 VPB.n1442 VPB.n1441 76
R223 VPB.n1447 VPB.n1446 76
R224 VPB.n1452 VPB.n1451 76
R225 VPB.n1456 VPB.n1455 76
R226 VPB.n1460 VPB.n1459 76
R227 VPB.n1487 VPB.n1486 76
R228 VPB.n1491 VPB.n1490 76
R229 VPB.n1496 VPB.n1495 76
R230 VPB.n1501 VPB.n1500 76
R231 VPB.n1508 VPB.n1507 76
R232 VPB.n1513 VPB.n1512 76
R233 VPB.n1518 VPB.n1517 76
R234 VPB.n1525 VPB.n1524 76
R235 VPB.n1530 VPB.n1529 76
R236 VPB.n1535 VPB.n1534 76
R237 VPB.n1539 VPB.n1538 76
R238 VPB.n1543 VPB.n1542 76
R239 VPB.n1570 VPB.n1569 76
R240 VPB.n1574 VPB.n1573 76
R241 VPB.n1579 VPB.n1578 76
R242 VPB.n1584 VPB.n1583 76
R243 VPB.n1591 VPB.n1590 76
R244 VPB.n1596 VPB.n1595 76
R245 VPB.n1601 VPB.n1600 76
R246 VPB.n1608 VPB.n1607 76
R247 VPB.n1613 VPB.n1612 76
R248 VPB.n1618 VPB.n1617 76
R249 VPB.n1622 VPB.n1621 76
R250 VPB.n1626 VPB.n1625 76
R251 VPB.n1653 VPB.n1652 76
R252 VPB.n1657 VPB.n1656 76
R253 VPB.n1662 VPB.n1661 76
R254 VPB.n1667 VPB.n1666 76
R255 VPB.n1674 VPB.n1673 76
R256 VPB.n1679 VPB.n1678 76
R257 VPB.n1684 VPB.n1683 76
R258 VPB.n1691 VPB.n1690 76
R259 VPB.n1696 VPB.n1695 76
R260 VPB.n1701 VPB.n1700 76
R261 VPB.n1705 VPB.n1704 76
R262 VPB.n1709 VPB.n1708 76
R263 VPB.n1722 VPB.n1721 76
R264 VPB.n428 VPB.n427 75.654
R265 VPB.n511 VPB.n510 75.654
R266 VPB.n594 VPB.n593 75.654
R267 VPB.n677 VPB.n676 75.654
R268 VPB.n760 VPB.n759 75.654
R269 VPB.n843 VPB.n842 75.654
R270 VPB.n926 VPB.n925 75.654
R271 VPB.n947 VPB.n946 75.654
R272 VPB.n1029 VPB.n1028 75.654
R273 VPB.n1112 VPB.n1111 75.654
R274 VPB.n1195 VPB.n1194 75.654
R275 VPB.n1278 VPB.n1277 75.654
R276 VPB.n1361 VPB.n1360 75.654
R277 VPB.n1444 VPB.n1443 75.654
R278 VPB.n1527 VPB.n1526 75.654
R279 VPB.n1610 VPB.n1609 75.654
R280 VPB.n1693 VPB.n1692 75.654
R281 VPB.n72 VPB.n71 75.654
R282 VPB.n181 VPB.n180 68.979
R283 VPB.n171 VPB.n170 64.528
R284 VPB.n22 VPB.n21 61.764
R285 VPB.n1633 VPB.n1632 61.764
R286 VPB.n1550 VPB.n1549 61.764
R287 VPB.n1467 VPB.n1466 61.764
R288 VPB.n1384 VPB.n1383 61.764
R289 VPB.n1301 VPB.n1300 61.764
R290 VPB.n1218 VPB.n1217 61.764
R291 VPB.n1135 VPB.n1134 61.764
R292 VPB.n1052 VPB.n1051 61.764
R293 VPB.n969 VPB.n968 61.764
R294 VPB.n90 VPB.n89 61.764
R295 VPB.n866 VPB.n865 61.764
R296 VPB.n783 VPB.n782 61.764
R297 VPB.n700 VPB.n699 61.764
R298 VPB.n617 VPB.n616 61.764
R299 VPB.n534 VPB.n533 61.764
R300 VPB.n451 VPB.n450 61.764
R301 VPB.n368 VPB.n367 61.764
R302 VPB.n305 VPB.n304 61.764
R303 VPB.n250 VPB.n249 61.764
R304 VPB.n195 VPB.n194 61.764
R305 VPB.n353 VPB.t0 55.465
R306 VPB.n326 VPB.t29 55.465
R307 VPB.n78 VPB.t43 55.106
R308 VPB.n1697 VPB.t7 55.106
R309 VPB.n1614 VPB.t41 55.106
R310 VPB.n1531 VPB.t16 55.106
R311 VPB.n1448 VPB.t21 55.106
R312 VPB.n1365 VPB.t100 55.106
R313 VPB.n1282 VPB.t46 55.106
R314 VPB.n1199 VPB.t108 55.106
R315 VPB.n1116 VPB.t13 55.106
R316 VPB.n1033 VPB.t30 55.106
R317 VPB.n950 VPB.t19 55.106
R318 VPB.n930 VPB.t49 55.106
R319 VPB.n847 VPB.t45 55.106
R320 VPB.n764 VPB.t83 55.106
R321 VPB.n681 VPB.t10 55.106
R322 VPB.n598 VPB.t5 55.106
R323 VPB.n515 VPB.t84 55.106
R324 VPB.n432 VPB.t18 55.106
R325 VPB.n179 VPB.t87 55.106
R326 VPB.n169 VPB.t109 55.106
R327 VPB.n45 VPB.t51 55.106
R328 VPB.n1658 VPB.t38 55.106
R329 VPB.n1575 VPB.t35 55.106
R330 VPB.n1492 VPB.t63 55.106
R331 VPB.n1409 VPB.t31 55.106
R332 VPB.n1326 VPB.t22 55.106
R333 VPB.n1243 VPB.t101 55.106
R334 VPB.n1160 VPB.t85 55.106
R335 VPB.n1077 VPB.t34 55.106
R336 VPB.n994 VPB.t57 55.106
R337 VPB.n119 VPB.t17 55.106
R338 VPB.n891 VPB.t2 55.106
R339 VPB.n808 VPB.t107 55.106
R340 VPB.n725 VPB.t24 55.106
R341 VPB.n642 VPB.t52 55.106
R342 VPB.n559 VPB.t64 55.106
R343 VPB.n476 VPB.t103 55.106
R344 VPB.n393 VPB.t106 55.106
R345 VPB.n332 VPB.n331 48.952
R346 VPB.n406 VPB.n405 48.952
R347 VPB.n489 VPB.n488 48.952
R348 VPB.n572 VPB.n571 48.952
R349 VPB.n655 VPB.n654 48.952
R350 VPB.n738 VPB.n737 48.952
R351 VPB.n821 VPB.n820 48.952
R352 VPB.n904 VPB.n903 48.952
R353 VPB.n128 VPB.n127 48.952
R354 VPB.n1007 VPB.n1006 48.952
R355 VPB.n1090 VPB.n1089 48.952
R356 VPB.n1173 VPB.n1172 48.952
R357 VPB.n1256 VPB.n1255 48.952
R358 VPB.n1339 VPB.n1338 48.952
R359 VPB.n1422 VPB.n1421 48.952
R360 VPB.n1505 VPB.n1504 48.952
R361 VPB.n1588 VPB.n1587 48.952
R362 VPB.n1671 VPB.n1670 48.952
R363 VPB.n54 VPB.n53 48.952
R364 VPB.n349 VPB.n348 44.502
R365 VPB.n423 VPB.n422 44.502
R366 VPB.n506 VPB.n505 44.502
R367 VPB.n589 VPB.n588 44.502
R368 VPB.n672 VPB.n671 44.502
R369 VPB.n755 VPB.n754 44.502
R370 VPB.n838 VPB.n837 44.502
R371 VPB.n921 VPB.n920 44.502
R372 VPB.n142 VPB.n141 44.502
R373 VPB.n1024 VPB.n1023 44.502
R374 VPB.n1107 VPB.n1106 44.502
R375 VPB.n1190 VPB.n1189 44.502
R376 VPB.n1273 VPB.n1272 44.502
R377 VPB.n1356 VPB.n1355 44.502
R378 VPB.n1439 VPB.n1438 44.502
R379 VPB.n1522 VPB.n1521 44.502
R380 VPB.n1605 VPB.n1604 44.502
R381 VPB.n1688 VPB.n1687 44.502
R382 VPB.n68 VPB.n67 44.502
R383 VPB.n337 VPB.n336 41.183
R384 VPB.n66 VPB.n14 40.824
R385 VPB.n57 VPB.n15 40.824
R386 VPB.n1686 VPB.n1685 40.824
R387 VPB.n1669 VPB.n1668 40.824
R388 VPB.n1603 VPB.n1602 40.824
R389 VPB.n1586 VPB.n1585 40.824
R390 VPB.n1520 VPB.n1519 40.824
R391 VPB.n1503 VPB.n1502 40.824
R392 VPB.n1437 VPB.n1436 40.824
R393 VPB.n1420 VPB.n1419 40.824
R394 VPB.n1354 VPB.n1353 40.824
R395 VPB.n1337 VPB.n1336 40.824
R396 VPB.n1271 VPB.n1270 40.824
R397 VPB.n1254 VPB.n1253 40.824
R398 VPB.n1188 VPB.n1187 40.824
R399 VPB.n1171 VPB.n1170 40.824
R400 VPB.n1105 VPB.n1104 40.824
R401 VPB.n1088 VPB.n1087 40.824
R402 VPB.n1022 VPB.n1021 40.824
R403 VPB.n1005 VPB.n1004 40.824
R404 VPB.n140 VPB.n82 40.824
R405 VPB.n131 VPB.n83 40.824
R406 VPB.n919 VPB.n918 40.824
R407 VPB.n902 VPB.n901 40.824
R408 VPB.n836 VPB.n835 40.824
R409 VPB.n819 VPB.n818 40.824
R410 VPB.n753 VPB.n752 40.824
R411 VPB.n736 VPB.n735 40.824
R412 VPB.n670 VPB.n669 40.824
R413 VPB.n653 VPB.n652 40.824
R414 VPB.n587 VPB.n586 40.824
R415 VPB.n570 VPB.n569 40.824
R416 VPB.n504 VPB.n503 40.824
R417 VPB.n487 VPB.n486 40.824
R418 VPB.n421 VPB.n420 40.824
R419 VPB.n404 VPB.n403 40.824
R420 VPB.n1726 VPB.n1722 20.452
R421 VPB.n168 VPB.n165 20.452
R422 VPB.n339 VPB.n338 17.801
R423 VPB.n411 VPB.n410 17.801
R424 VPB.n494 VPB.n493 17.801
R425 VPB.n577 VPB.n576 17.801
R426 VPB.n660 VPB.n659 17.801
R427 VPB.n743 VPB.n742 17.801
R428 VPB.n826 VPB.n825 17.801
R429 VPB.n909 VPB.n908 17.801
R430 VPB.n133 VPB.n132 17.801
R431 VPB.n1012 VPB.n1011 17.801
R432 VPB.n1095 VPB.n1094 17.801
R433 VPB.n1178 VPB.n1177 17.801
R434 VPB.n1261 VPB.n1260 17.801
R435 VPB.n1344 VPB.n1343 17.801
R436 VPB.n1427 VPB.n1426 17.801
R437 VPB.n1510 VPB.n1509 17.801
R438 VPB.n1593 VPB.n1592 17.801
R439 VPB.n1676 VPB.n1675 17.801
R440 VPB.n59 VPB.n58 17.801
R441 VPB.n14 VPB.t55 14.282
R442 VPB.n14 VPB.t47 14.282
R443 VPB.n15 VPB.t20 14.282
R444 VPB.n15 VPB.t54 14.282
R445 VPB.n1685 VPB.t90 14.282
R446 VPB.n1685 VPB.t8 14.282
R447 VPB.n1668 VPB.t105 14.282
R448 VPB.n1668 VPB.t96 14.282
R449 VPB.n1602 VPB.t81 14.282
R450 VPB.n1602 VPB.t9 14.282
R451 VPB.n1585 VPB.t104 14.282
R452 VPB.n1585 VPB.t82 14.282
R453 VPB.n1519 VPB.t98 14.282
R454 VPB.n1519 VPB.t112 14.282
R455 VPB.n1502 VPB.t62 14.282
R456 VPB.n1502 VPB.t99 14.282
R457 VPB.n1436 VPB.t67 14.282
R458 VPB.n1436 VPB.t39 14.282
R459 VPB.n1419 VPB.t3 14.282
R460 VPB.n1419 VPB.t68 14.282
R461 VPB.n1353 VPB.t71 14.282
R462 VPB.n1353 VPB.t40 14.282
R463 VPB.n1336 VPB.t110 14.282
R464 VPB.n1336 VPB.t79 14.282
R465 VPB.n1270 VPB.t61 14.282
R466 VPB.n1270 VPB.t48 14.282
R467 VPB.n1253 VPB.t86 14.282
R468 VPB.n1253 VPB.t60 14.282
R469 VPB.n1187 VPB.t91 14.282
R470 VPB.n1187 VPB.t27 14.282
R471 VPB.n1170 VPB.t26 14.282
R472 VPB.n1170 VPB.t97 14.282
R473 VPB.n1104 VPB.t80 14.282
R474 VPB.n1104 VPB.t28 14.282
R475 VPB.n1087 VPB.t33 14.282
R476 VPB.n1087 VPB.t75 14.282
R477 VPB.n1021 VPB.t88 14.282
R478 VPB.n1021 VPB.t25 14.282
R479 VPB.n1004 VPB.t53 14.282
R480 VPB.n1004 VPB.t95 14.282
R481 VPB.n82 VPB.t58 14.282
R482 VPB.n82 VPB.t102 14.282
R483 VPB.n83 VPB.t32 14.282
R484 VPB.n83 VPB.t59 14.282
R485 VPB.n918 VPB.t78 14.282
R486 VPB.n918 VPB.t113 14.282
R487 VPB.n901 VPB.t11 14.282
R488 VPB.n901 VPB.t74 14.282
R489 VPB.n835 VPB.t56 14.282
R490 VPB.n835 VPB.t44 14.282
R491 VPB.n818 VPB.t1 14.282
R492 VPB.n818 VPB.t69 14.282
R493 VPB.n752 VPB.t89 14.282
R494 VPB.n752 VPB.t42 14.282
R495 VPB.n735 VPB.t23 14.282
R496 VPB.n735 VPB.t92 14.282
R497 VPB.n669 VPB.t72 14.282
R498 VPB.n669 VPB.t15 14.282
R499 VPB.n652 VPB.t36 14.282
R500 VPB.n652 VPB.t73 14.282
R501 VPB.n586 VPB.t93 14.282
R502 VPB.n586 VPB.t6 14.282
R503 VPB.n569 VPB.t70 14.282
R504 VPB.n569 VPB.t94 14.282
R505 VPB.n503 VPB.t65 14.282
R506 VPB.n503 VPB.t12 14.282
R507 VPB.n486 VPB.t4 14.282
R508 VPB.n486 VPB.t66 14.282
R509 VPB.n420 VPB.t76 14.282
R510 VPB.n420 VPB.t50 14.282
R511 VPB.n403 VPB.t111 14.282
R512 VPB.n403 VPB.t77 14.282
R513 VPB.n336 VPB.t14 14.282
R514 VPB.n336 VPB.t37 14.282
R515 VPB.n168 VPB.n167 13.653
R516 VPB.n167 VPB.n166 13.653
R517 VPB.n173 VPB.n172 13.653
R518 VPB.n172 VPB.n171 13.653
R519 VPB.n177 VPB.n176 13.653
R520 VPB.n176 VPB.n175 13.653
R521 VPB.n183 VPB.n182 13.653
R522 VPB.n182 VPB.n181 13.653
R523 VPB.n187 VPB.n186 13.653
R524 VPB.n186 VPB.n185 13.653
R525 VPB.n214 VPB.n213 13.653
R526 VPB.n213 VPB.n212 13.653
R527 VPB.n218 VPB.n217 13.653
R528 VPB.n217 VPB.n216 13.653
R529 VPB.n222 VPB.n221 13.653
R530 VPB.n221 VPB.n220 13.653
R531 VPB.n226 VPB.n225 13.653
R532 VPB.n225 VPB.n224 13.653
R533 VPB.n230 VPB.n229 13.653
R534 VPB.n229 VPB.n228 13.653
R535 VPB.n234 VPB.n233 13.653
R536 VPB.n233 VPB.n232 13.653
R537 VPB.n238 VPB.n237 13.653
R538 VPB.n237 VPB.n236 13.653
R539 VPB.n242 VPB.n241 13.653
R540 VPB.n241 VPB.n240 13.653
R541 VPB.n269 VPB.n268 13.653
R542 VPB.n268 VPB.n267 13.653
R543 VPB.n273 VPB.n272 13.653
R544 VPB.n272 VPB.n271 13.653
R545 VPB.n277 VPB.n276 13.653
R546 VPB.n276 VPB.n275 13.653
R547 VPB.n281 VPB.n280 13.653
R548 VPB.n280 VPB.n279 13.653
R549 VPB.n285 VPB.n284 13.653
R550 VPB.n284 VPB.n283 13.653
R551 VPB.n289 VPB.n288 13.653
R552 VPB.n288 VPB.n287 13.653
R553 VPB.n293 VPB.n292 13.653
R554 VPB.n292 VPB.n291 13.653
R555 VPB.n297 VPB.n296 13.653
R556 VPB.n296 VPB.n295 13.653
R557 VPB.n324 VPB.n323 13.653
R558 VPB.n323 VPB.n322 13.653
R559 VPB.n329 VPB.n328 13.653
R560 VPB.n328 VPB.n327 13.653
R561 VPB.n334 VPB.n333 13.653
R562 VPB.n333 VPB.n332 13.653
R563 VPB.n341 VPB.n340 13.653
R564 VPB.n340 VPB.n339 13.653
R565 VPB.n346 VPB.n345 13.653
R566 VPB.n345 VPB.n344 13.653
R567 VPB.n351 VPB.n350 13.653
R568 VPB.n350 VPB.n349 13.653
R569 VPB.n356 VPB.n355 13.653
R570 VPB.n355 VPB.n354 13.653
R571 VPB.n360 VPB.n359 13.653
R572 VPB.n359 VPB.n358 13.653
R573 VPB.n387 VPB.n386 13.653
R574 VPB.n386 VPB.n385 13.653
R575 VPB.n391 VPB.n390 13.653
R576 VPB.n390 VPB.n389 13.653
R577 VPB.n396 VPB.n395 13.653
R578 VPB.n395 VPB.n394 13.653
R579 VPB.n401 VPB.n400 13.653
R580 VPB.n400 VPB.n399 13.653
R581 VPB.n408 VPB.n407 13.653
R582 VPB.n407 VPB.n406 13.653
R583 VPB.n413 VPB.n412 13.653
R584 VPB.n412 VPB.n411 13.653
R585 VPB.n418 VPB.n417 13.653
R586 VPB.n417 VPB.n416 13.653
R587 VPB.n425 VPB.n424 13.653
R588 VPB.n424 VPB.n423 13.653
R589 VPB.n430 VPB.n429 13.653
R590 VPB.n429 VPB.n428 13.653
R591 VPB.n435 VPB.n434 13.653
R592 VPB.n434 VPB.n433 13.653
R593 VPB.n439 VPB.n438 13.653
R594 VPB.n438 VPB.n437 13.653
R595 VPB.n443 VPB.n442 13.653
R596 VPB.n442 VPB.n441 13.653
R597 VPB.n470 VPB.n469 13.653
R598 VPB.n469 VPB.n468 13.653
R599 VPB.n474 VPB.n473 13.653
R600 VPB.n473 VPB.n472 13.653