* SPICE3 file created from TMRDFFSNQNX1.ext - technology: sky130A

.subckt TMRDFFSNQNX1 D CLK SN QN VNB VPB
M1000 VPB.t48 CLK a_5227_383.t2 pshort w=2u l=0.15u
+  ad=0p pd=0u as=0p ps=0u
M1001 a_15533_1005.t5 a_3473_1004.t5 a_15044_181.t4 pshort w=2u l=0.15u
+  ad=0p pd=0u as=0p ps=0u
M1002 VNB D a_112_73.t0 nshort w=-1.605u l=1.765u
+  ad=3.7611p pd=32.97u as=0p ps=0u
M1003 a_3599_383.t6 SN VPB.t73 pshort w=2u l=0.15u
+  ad=0p pd=0u as=0p ps=0u
M1004 VNB a_343_383.t11 a_3368_73.t0 nshort w=-1.605u l=1.765u
+  ad=0p pd=0u as=0p ps=0u
M1005 VNB a_9985_1004.t8 a_11487_75.t0 nshort w=-1.605u l=1.765u
+  ad=0p pd=0u as=0p ps=0u
M1006 VPB.t42 CLK a_11033_943.t2 pshort w=2u l=0.15u
+  ad=0p pd=0u as=0p ps=0u
M1007 VPB.t1 a_8357_1004.t5 a_8483_383.t1 pshort w=2u l=0.15u
+  ad=0p pd=0u as=0p ps=0u
M1008 a_5227_383.t1 CLK VPB.t47 pshort w=2u l=0.15u
+  ad=0p pd=0u as=0p ps=0u
M1009 a_14869_1005.t5 a_3473_1004.t6 a_15533_1005.t3 pshort w=2u l=0.15u
+  ad=0p pd=0u as=0p ps=0u
M1010 VPB.t39 D a_217_1004.t1 pshort w=2u l=0.15u
+  ad=0p pd=0u as=0p ps=0u
M1011 VPB.t4 a_1265_943.t5 a_1905_1004.t1 pshort w=2u l=0.15u
+  ad=0p pd=0u as=0p ps=0u
M1012 VPB.t37 D a_5101_1004.t4 pshort w=2u l=0.15u
+  ad=0p pd=0u as=0p ps=0u
M1013 a_9985_1004.t3 a_10111_383.t7 VPB.t72 pshort w=2u l=0.15u
+  ad=0p pd=0u as=0p ps=0u
M1014 VPB.t85 a_5101_1004.t5 a_6789_1004.t3 pshort w=2u l=0.15u
+  ad=0p pd=0u as=0p ps=0u
M1015 a_15533_1005.t1 a_8357_1004.t6 a_15044_181.t1 pshort w=2u l=0.15u
+  ad=0p pd=0u as=0p ps=0u
M1016 a_6789_1004.t5 a_6149_943.t6 VPB.t89 pshort w=2u l=0.15u
+  ad=0p pd=0u as=0p ps=0u
M1017 VPB.t13 a_11033_943.t6 a_11673_1004.t3 pshort w=2u l=0.15u
+  ad=0p pd=0u as=0p ps=0u
M1018 a_3599_383.t1 a_1265_943.t6 VPB.t21 pshort w=2u l=0.15u
+  ad=0p pd=0u as=0p ps=0u
M1019 a_13241_1004.t4 a_10111_383.t9 VPB.t23 pshort w=2u l=0.15u
+  ad=0p pd=0u as=0p ps=0u
M1020 VNB D a_9880_73.t0 nshort w=-1.605u l=1.765u
+  ad=0p pd=0u as=0p ps=0u
M1021 a_1905_1004.t4 a_217_1004.t6 VPB.t14 pshort w=2u l=0.15u
+  ad=0p pd=0u as=0p ps=0u
M1022 VPB.t93 a_11673_1004.t7 a_11033_943.t4 pshort w=2u l=0.15u
+  ad=0p pd=0u as=0p ps=0u
M1023 a_14869_1005.t7 a_13241_1004.t5 a_15533_1005.t7 pshort w=2u l=0.15u
+  ad=0p pd=0u as=0p ps=0u
M1024 VPB.t59 a_343_383.t7 a_217_1004.t2 pshort w=2u l=0.15u
+  ad=0p pd=0u as=0p ps=0u
M1025 VPB.t30 a_5227_383.t7 a_5101_1004.t1 pshort w=2u l=0.15u
+  ad=0p pd=0u as=0p ps=0u
M1026 a_11673_1004.t2 a_11033_943.t7 VPB.t18 pshort w=2u l=0.15u
+  ad=0p pd=0u as=0p ps=0u
M1027 VPB.t68 a_217_1004.t7 a_343_383.t6 pshort w=2u l=0.15u
+  ad=0p pd=0u as=0p ps=0u
M1028 VPB.t40 a_13241_1004.t7 a_13367_383.t1 pshort w=2u l=0.15u
+  ad=0p pd=0u as=0p ps=0u
M1029 a_3473_1004.t2 a_3599_383.t7 VPB.t29 pshort w=2u l=0.15u
+  ad=0p pd=0u as=0p ps=0u
M1030 a_10111_383.t3 CLK VPB.t46 pshort w=2u l=0.15u
+  ad=0p pd=0u as=0p ps=0u
M1031 VNB a_217_1004.t10 a_757_75.t0 nshort w=-1.605u l=1.765u
+  ad=0p pd=0u as=0p ps=0u
M1032 a_5227_383.t5 a_6149_943.t7 VPB.t91 pshort w=2u l=0.15u
+  ad=0p pd=0u as=0p ps=0u
M1033 VPB.t64 a_11033_943.t9 a_10111_383.t5 pshort w=2u l=0.15u
+  ad=0p pd=0u as=0p ps=0u
M1034 a_13241_1004.t2 a_13367_383.t7 VPB.t63 pshort w=2u l=0.15u
+  ad=0p pd=0u as=0p ps=0u
M1035 VPB.t33 a_5227_383.t9 a_8357_1004.t4 pshort w=2u l=0.15u
+  ad=0p pd=0u as=0p ps=0u
M1036 VNB a_1905_1004.t7 a_2702_73.t0 nshort w=-1.605u l=1.765u
+  ad=0p pd=0u as=0p ps=0u
M1037 a_6149_943.t3 CLK VPB.t52 pshort w=2u l=0.15u
+  ad=0p pd=0u as=0p ps=0u
M1038 a_14869_1005.t0 a_13241_1004.t9 VPB.t53 pshort w=2u l=0.15u
+  ad=0p pd=0u as=0p ps=0u
M1039 VNB a_10111_383.t10 a_13136_73.t0 nshort w=-1.605u l=1.765u
+  ad=0p pd=0u as=0p ps=0u
M1040 a_13367_383.t0 a_13241_1004.t10 VPB.t57 pshort w=2u l=0.15u
+  ad=0p pd=0u as=0p ps=0u
M1041 VPB.t92 a_6149_943.t8 a_8483_383.t5 pshort w=2u l=0.15u
+  ad=0p pd=0u as=0p ps=0u
M1042 VNB a_5227_383.t8 a_8252_73.t0 nshort w=-1.605u l=1.765u
+  ad=0p pd=0u as=0p ps=0u
M1043 VNB a_8357_1004.t13 a_8897_75.t0 nshort w=-1.605u l=1.765u
+  ad=0p pd=0u as=0p ps=0u
M1044 VPB.t26 a_8357_1004.t7 a_14869_1005.t3 pshort w=2u l=0.15u
+  ad=0p pd=0u as=0p ps=0u
M1045 VPB.t49 CLK a_343_383.t1 pshort w=2u l=0.15u
+  ad=0p pd=0u as=0p ps=0u
M1046 a_3473_1004.t4 a_343_383.t9 VPB.t86 pshort w=2u l=0.15u
+  ad=0p pd=0u as=0p ps=0u
M1047 VPB.t5 a_1905_1004.t8 a_1265_943.t0 pshort w=2u l=0.15u
+  ad=0p pd=0u as=0p ps=0u
M1048 a_8483_383.t3 SN VPB.t84 pshort w=2u l=0.15u
+  ad=0p pd=0u as=0p ps=0u
M1049 VPB.t83 SN a_13367_383.t6 pshort w=2u l=0.15u
+  ad=0p pd=0u as=0p ps=0u
M1050 a_10111_383.t0 a_9985_1004.t5 VPB.t6 pshort w=2u l=0.15u
+  ad=0p pd=0u as=0p ps=0u
M1051 a_15533_1005.t6 a_13241_1004.t11 a_14869_1005.t6 pshort w=2u l=0.15u
+  ad=0p pd=0u as=0p ps=0u
M1052 VPB.t15 a_10111_383.t11 a_9985_1004.t2 pshort w=2u l=0.15u
+  ad=0p pd=0u as=0p ps=0u
M1053 VNB a_13241_1004.t8 a_14764_73.t0 nshort w=-1.605u l=1.765u
+  ad=0p pd=0u as=0p ps=0u
M1054 VPB.t79 SN a_11673_1004.t6 pshort w=2u l=0.15u
+  ad=0p pd=0u as=0p ps=0u
M1055 a_6149_943.t1 a_6789_1004.t7 VPB.t28 pshort w=2u l=0.15u
+  ad=0p pd=0u as=0p ps=0u
M1056 VPB.t58 a_3473_1004.t9 a_3599_383.t4 pshort w=2u l=0.15u
+  ad=0p pd=0u as=0p ps=0u
M1057 VPB.t3 a_1265_943.t8 a_3599_383.t0 pshort w=2u l=0.15u
+  ad=0p pd=0u as=0p ps=0u
M1058 VNB a_217_1004.t5 a_1719_75.t0 nshort w=-1.605u l=1.765u
+  ad=0p pd=0u as=0p ps=0u
M1059 VPB.t0 a_1265_943.t9 a_343_383.t3 pshort w=2u l=0.15u
+  ad=0p pd=0u as=0p ps=0u
M1060 a_8483_383.t0 a_8357_1004.t9 VPB.t7 pshort w=2u l=0.15u
+  ad=0p pd=0u as=0p ps=0u
M1061 VPB.t16 a_11033_943.t10 a_13367_383.t4 pshort w=2u l=0.15u
+  ad=0p pd=0u as=0p ps=0u
M1062 VPB.t65 a_5101_1004.t8 a_5227_383.t3 pshort w=2u l=0.15u
+  ad=0p pd=0u as=0p ps=0u
M1063 a_15533_1005.t2 a_3473_1004.t11 a_14869_1005.t4 pshort w=2u l=0.15u
+  ad=0p pd=0u as=0p ps=0u
M1064 a_8483_383.t4 a_6149_943.t9 VPB.t87 pshort w=2u l=0.15u
+  ad=0p pd=0u as=0p ps=0u
M1065 a_217_1004.t0 D VPB.t38 pshort w=2u l=0.15u
+  ad=0p pd=0u as=0p ps=0u
M1066 VPB.t34 D a_9985_1004.t1 pshort w=2u l=0.15u
+  ad=0p pd=0u as=0p ps=0u
M1067 a_1905_1004.t0 a_1265_943.t10 VPB.t22 pshort w=2u l=0.15u
+  ad=0p pd=0u as=0p ps=0u
M1068 a_6789_1004.t0 a_5101_1004.t9 VPB.t66 pshort w=2u l=0.15u
+  ad=0p pd=0u as=0p ps=0u
M1069 VPB.t10 a_9985_1004.t7 a_11673_1004.t1 pshort w=2u l=0.15u
+  ad=0p pd=0u as=0p ps=0u
M1070 a_15044_181.t0 a_8357_1004.t10 a_15533_1005.t0 pshort w=2u l=0.15u
+  ad=0p pd=0u as=0p ps=0u
M1071 VPB.t76 SN a_3599_383.t5 pshort w=2u l=0.15u
+  ad=0p pd=0u as=0p ps=0u
M1072 VPB.t78 SN a_6789_1004.t2 pshort w=2u l=0.15u
+  ad=0p pd=0u as=0p ps=0u
M1073 VNB a_6789_1004.t8 a_7586_73.t0 nshort w=-1.605u l=1.765u
+  ad=0p pd=0u as=0p ps=0u
M1074 VNB a_3473_1004.t10 a_16096_73.t0 nshort w=-1.605u l=1.765u
+  ad=0p pd=0u as=0p ps=0u
M1075 VNB D a_4996_73.t0 nshort w=-1.605u l=1.765u
+  ad=0p pd=0u as=0p ps=0u
M1076 a_11033_943.t3 a_11673_1004.t8 VPB.t56 pshort w=2u l=0.15u
+  ad=0p pd=0u as=0p ps=0u
M1077 VNB a_13241_1004.t6 a_13781_75.t0 nshort w=-1.605u l=1.765u
+  ad=0p pd=0u as=0p ps=0u
M1078 a_1905_1004.t6 SN VPB.t75 pshort w=2u l=0.15u
+  ad=0p pd=0u as=0p ps=0u
M1079 a_5101_1004.t0 a_5227_383.t10 VPB.t31 pshort w=2u l=0.15u
+  ad=0p pd=0u as=0p ps=0u
M1080 a_217_1004.t3 a_343_383.t10 VPB.t62 pshort w=2u l=0.15u
+  ad=0p pd=0u as=0p ps=0u
M1081 VNB a_5101_1004.t6 a_5641_75.t0 nshort w=-1.605u l=1.765u
+  ad=0p pd=0u as=0p ps=0u
M1082 a_6789_1004.t1 SN VPB.t77 pshort w=2u l=0.15u
+  ad=0p pd=0u as=0p ps=0u
M1083 a_15044_181.t6 a_3473_1004.t12 a_15533_1005.t4 pshort w=2u l=0.15u
+  ad=0p pd=0u as=0p ps=0u
M1084 VPB.t24 a_9985_1004.t9 a_10111_383.t1 pshort w=2u l=0.15u
+  ad=0p pd=0u as=0p ps=0u
M1085 VPB.t8 a_8483_383.t8 a_8357_1004.t0 pshort w=2u l=0.15u
+  ad=0p pd=0u as=0p ps=0u
M1086 a_343_383.t5 a_217_1004.t8 VPB.t71 pshort w=2u l=0.15u
+  ad=0p pd=0u as=0p ps=0u
M1087 VPB.t88 a_6149_943.t11 a_6789_1004.t4 pshort w=2u l=0.15u
+  ad=0p pd=0u as=0p ps=0u
M1088 VPB.t69 a_10111_383.t12 a_13241_1004.t3 pshort w=2u l=0.15u
+  ad=0p pd=0u as=0p ps=0u
M1089 a_10111_383.t4 a_11033_943.t11 VPB.t70 pshort w=2u l=0.15u
+  ad=0p pd=0u as=0p ps=0u
M1090 a_8357_1004.t3 a_5227_383.t11 VPB.t32 pshort w=2u l=0.15u
+  ad=0p pd=0u as=0p ps=0u
M1091 VPB.t67 a_217_1004.t9 a_1905_1004.t3 pshort w=2u l=0.15u
+  ad=0p pd=0u as=0p ps=0u
M1092 VPB.t27 a_6789_1004.t9 a_6149_943.t0 pshort w=2u l=0.15u
+  ad=0p pd=0u as=0p ps=0u
M1093 a_11033_943.t1 CLK VPB.t41 pshort w=2u l=0.15u
+  ad=0p pd=0u as=0p ps=0u
M1094 a_5101_1004.t3 D VPB.t36 pshort w=2u l=0.15u
+  ad=0p pd=0u as=0p ps=0u
M1095 a_343_383.t0 CLK VPB.t50 pshort w=2u l=0.15u
+  ad=0p pd=0u as=0p ps=0u
M1096 a_14869_1005.t2 a_8357_1004.t11 VPB.t12 pshort w=2u l=0.15u
+  ad=0p pd=0u as=0p ps=0u
M1097 VNB a_5101_1004.t7 a_6603_75.t0 nshort w=-1.605u l=1.765u
+  ad=0p pd=0u as=0p ps=0u
M1098 a_9985_1004.t0 D VPB.t35 pshort w=2u l=0.15u
+  ad=0p pd=0u as=0p ps=0u
M1099 a_13367_383.t5 SN VPB.t81 pshort w=2u l=0.15u
+  ad=0p pd=0u as=0p ps=0u
M1100 a_1265_943.t1 a_1905_1004.t9 VPB.t11 pshort w=2u l=0.15u
+  ad=0p pd=0u as=0p ps=0u
M1101 VPB.t9 a_3599_383.t9 a_3473_1004.t1 pshort w=2u l=0.15u
+  ad=0p pd=0u as=0p ps=0u
M1102 VNB a_3473_1004.t8 a_4013_75.t0 nshort w=-1.605u l=1.765u
+  ad=0p pd=0u as=0p ps=0u
M1103 VPB.t45 CLK a_10111_383.t2 pshort w=2u l=0.15u
+  ad=0p pd=0u as=0p ps=0u
M1104 a_11673_1004.t5 SN VPB.t82 pshort w=2u l=0.15u
+  ad=0p pd=0u as=0p ps=0u
M1105 VPB.t44 CLK a_1265_943.t3 pshort w=2u l=0.15u
+  ad=0p pd=0u as=0p ps=0u
M1106 VPB.t90 a_6149_943.t12 a_5227_383.t4 pshort w=2u l=0.15u
+  ad=0p pd=0u as=0p ps=0u
M1107 VPB.t55 a_13367_383.t9 a_13241_1004.t0 pshort w=2u l=0.15u
+  ad=0p pd=0u as=0p ps=0u
M1108 VNB a_11673_1004.t9 a_12470_73.t0 nshort w=-1.605u l=1.765u
+  ad=0p pd=0u as=0p ps=0u
M1109 a_8357_1004.t2 a_8483_383.t9 VPB.t17 pshort w=2u l=0.15u
+  ad=0p pd=0u as=0p ps=0u
M1110 a_3599_383.t3 a_3473_1004.t13 VPB.t54 pshort w=2u l=0.15u
+  ad=0p pd=0u as=0p ps=0u
M1111 VPB.t51 CLK a_6149_943.t2 pshort w=2u l=0.15u
+  ad=0p pd=0u as=0p ps=0u
M1112 VPB.t61 a_13241_1004.t13 a_14869_1005.t1 pshort w=2u l=0.15u
+  ad=0p pd=0u as=0p ps=0u
M1113 VNB a_9985_1004.t6 a_10525_75.t0 nshort w=-1.605u l=1.765u
+  ad=0p pd=0u as=0p ps=0u
M1114 VNB a_13241_1004.t12 a_15430_73.t0 nshort w=-1.605u l=1.765u
+  ad=0p pd=0u as=0p ps=0u
M1115 a_343_383.t2 a_1265_943.t13 VPB.t20 pshort w=2u l=0.15u
+  ad=0p pd=0u as=0p ps=0u
M1116 VPB.t60 a_343_383.t12 a_3473_1004.t3 pshort w=2u l=0.15u
+  ad=0p pd=0u as=0p ps=0u
M1117 a_5227_383.t0 a_5101_1004.t10 VPB.t2 pshort w=2u l=0.15u
+  ad=0p pd=0u as=0p ps=0u
M1118 a_13367_383.t3 a_11033_943.t13 VPB.t19 pshort w=2u l=0.15u
+  ad=0p pd=0u as=0p ps=0u
M1119 VPB.t80 SN a_8483_383.t2 pshort w=2u l=0.15u
+  ad=0p pd=0u as=0p ps=0u
M1120 a_1265_943.t2 CLK VPB.t43 pshort w=2u l=0.15u
+  ad=0p pd=0u as=0p ps=0u
M1121 VPB.t74 SN a_1905_1004.t5 pshort w=2u l=0.15u
+  ad=0p pd=0u as=0p ps=0u
M1122 a_11673_1004.t0 a_9985_1004.t10 VPB.t25 pshort w=2u l=0.15u
+  ad=0p pd=0u as=0p ps=0u






R0 a_6149_943.n6 a_6149_943.t6 454.685
R1 a_6149_943.n8 a_6149_943.t7 454.685
R2 a_6149_943.n4 a_6149_943.t9 454.685
R3 a_6149_943.n6 a_6149_943.t11 428.979
R4 a_6149_943.n8 a_6149_943.t12 428.979
R5 a_6149_943.n4 a_6149_943.t8 428.979
R6 a_6149_943.n7 a_6149_943.t5 248.006
R7 a_6149_943.n9 a_6149_943.t13 248.006
R8 a_6149_943.n5 a_6149_943.t10 248.006
R9 a_6149_943.n14 a_6149_943.n12 220.639
R10 a_6149_943.n12 a_6149_943.n3 135.994
R11 a_6149_943.n7 a_6149_943.n6 81.941
R12 a_6149_943.n9 a_6149_943.n8 81.941
R13 a_6149_943.n5 a_6149_943.n4 81.941
R14 a_6149_943.n11 a_6149_943.n5 81.396
R15 a_6149_943.n10 a_6149_943.n9 79.491
R16 a_6149_943.n3 a_6149_943.n2 76.002
R17 a_6149_943.n10 a_6149_943.n7 76
R18 a_6149_943.n12 a_6149_943.n11 76
R19 a_6149_943.n14 a_6149_943.n13 30
R20 a_6149_943.n15 a_6149_943.n0 24.383
R21 a_6149_943.n15 a_6149_943.n14 23.684
R22 a_6149_943.n1 a_6149_943.t2 14.282
R23 a_6149_943.n1 a_6149_943.t3 14.282
R24 a_6149_943.n2 a_6149_943.t0 14.282
R25 a_6149_943.n2 a_6149_943.t1 14.282
R26 a_6149_943.n3 a_6149_943.n1 12.85
R27 a_6149_943.n11 a_6149_943.n10 2.947
R28 a_6884_182.n12 a_6884_182.n10 82.852
R29 a_6884_182.t1 a_6884_182.n2 46.91
R30 a_6884_182.n7 a_6884_182.n5 34.805
R31 a_6884_182.n7 a_6884_182.n6 32.622
R32 a_6884_182.n10 a_6884_182.t1 32.416
R33 a_6884_182.n12 a_6884_182.n11 27.2
R34 a_6884_182.n13 a_6884_182.n0 23.498
R35 a_6884_182.n13 a_6884_182.n12 22.4
R36 a_6884_182.n9 a_6884_182.n7 19.017
R37 a_6884_182.n2 a_6884_182.n1 17.006
R38 a_6884_182.n5 a_6884_182.n4 7.5
R39 a_6884_182.n9 a_6884_182.n8 7.5
R40 a_6884_182.t1 a_6884_182.n3 7.04
R41 a_6884_182.n10 a_6884_182.n9 1.435
R42 a_6789_1004.n5 a_6789_1004.t9 480.392
R43 a_6789_1004.n5 a_6789_1004.t7 403.272
R44 a_6789_1004.n7 a_6789_1004.n4 233.952
R45 a_6789_1004.n6 a_6789_1004.t8 213.869
R46 a_6789_1004.n6 a_6789_1004.n5 161.6
R47 a_6789_1004.n7 a_6789_1004.n6 153.315
R48 a_6789_1004.n9 a_6789_1004.n7 150.014
R49 a_6789_1004.n3 a_6789_1004.n2 79.232
R50 a_6789_1004.n4 a_6789_1004.n3 63.152
R51 a_6789_1004.n4 a_6789_1004.n0 16.08
R52 a_6789_1004.n3 a_6789_1004.n1 16.08
R53 a_6789_1004.n9 a_6789_1004.n8 15.218
R54 a_6789_1004.n0 a_6789_1004.t4 14.282
R55 a_6789_1004.n0 a_6789_1004.t5 14.282
R56 a_6789_1004.n1 a_6789_1004.t2 14.282
R57 a_6789_1004.n1 a_6789_1004.t1 14.282
R58 a_6789_1004.n2 a_6789_1004.t3 14.282
R59 a_6789_1004.n2 a_6789_1004.t0 14.282
R60 a_6789_1004.n10 a_6789_1004.n9 12.014
R61 a_5227_383.n6 a_5227_383.t9 480.392
R62 a_5227_383.n8 a_5227_383.t7 472.359
R63 a_5227_383.n6 a_5227_383.t11 403.272
R64 a_5227_383.n8 a_5227_383.t10 384.527
R65 a_5227_383.n7 a_5227_383.t8 320.08
R66 a_5227_383.n9 a_5227_383.t12 277.772
R67 a_5227_383.n13 a_5227_383.n11 249.364
R68 a_5227_383.n11 a_5227_383.n5 127.401
R69 a_5227_383.n10 a_5227_383.n7 83.304
R70 a_5227_383.n10 a_5227_383.n9 80.032
R71 a_5227_383.n4 a_5227_383.n3 79.232
R72 a_5227_383.n11 a_5227_383.n10 76
R73 a_5227_383.n9 a_5227_383.n8 67.001
R74 a_5227_383.n5 a_5227_383.n4 63.152
R75 a_5227_383.n7 a_5227_383.n6 55.388
R76 a_5227_383.n13 a_5227_383.n12 30
R77 a_5227_383.n14 a_5227_383.n0 24.383
R78 a_5227_383.n14 a_5227_383.n13 23.684
R79 a_5227_383.n5 a_5227_383.n1 16.08
R80 a_5227_383.n4 a_5227_383.n2 16.08
R81 a_5227_383.n1 a_5227_383.t4 14.282
R82 a_5227_383.n1 a_5227_383.t5 14.282
R83 a_5227_383.n2 a_5227_383.t2 14.282
R84 a_5227_383.n2 a_5227_383.t1 14.282
R85 a_5227_383.n3 a_5227_383.t3 14.282
R86 a_5227_383.n3 a_5227_383.t0 14.282
R87 VPB VPB.n1501 126.832
R88 VPB.n39 VPB.n37 94.117
R89 VPB.n1428 VPB.n1426 94.117
R90 VPB.n1345 VPB.n1343 94.117
R91 VPB.n1282 VPB.n1280 94.117
R92 VPB.n1219 VPB.n1217 94.117
R93 VPB.n1136 VPB.n1134 94.117
R94 VPB.n1073 VPB.n1071 94.117
R95 VPB.n990 VPB.n988 94.117
R96 VPB.n907 VPB.n905 94.117
R97 VPB.n844 VPB.n842 94.117
R98 VPB.n781 VPB.n779 94.117
R99 VPB.n698 VPB.n696 94.117
R100 VPB.n635 VPB.n633 94.117
R101 VPB.n552 VPB.n550 94.117
R102 VPB.n469 VPB.n467 94.117
R103 VPB.n406 VPB.n404 94.117
R104 VPB.n343 VPB.n341 94.117
R105 VPB.n260 VPB.n258 94.117
R106 VPB.n197 VPB.n195 94.117
R107 VPB.n142 VPB.n140 94.117
R108 VPB.n273 VPB.n272 80.104
R109 VPB.n482 VPB.n481 80.104
R110 VPB.n565 VPB.n564 80.104
R111 VPB.n711 VPB.n710 80.104
R112 VPB.n920 VPB.n919 80.104
R113 VPB.n1003 VPB.n1002 80.104
R114 VPB.n1149 VPB.n1148 80.104
R115 VPB.n1358 VPB.n1357 80.104
R116 VPB.n1441 VPB.n1440 80.104
R117 VPB.n105 VPB.n104 76
R118 VPB.n109 VPB.n108 76
R119 VPB.n113 VPB.n112 76
R120 VPB.n117 VPB.n116 76
R121 VPB.n144 VPB.n143 76
R122 VPB.n148 VPB.n147 76
R123 VPB.n152 VPB.n151 76
R124 VPB.n156 VPB.n155 76
R125 VPB.n160 VPB.n159 76
R126 VPB.n164 VPB.n163 76
R127 VPB.n168 VPB.n167 76
R128 VPB.n172 VPB.n171 76
R129 VPB.n199 VPB.n198 76
R130 VPB.n204 VPB.n203 76
R131 VPB.n209 VPB.n208 76
R132 VPB.n216 VPB.n215 76
R133 VPB.n221 VPB.n220 76
R134 VPB.n226 VPB.n225 76
R135 VPB.n231 VPB.n230 76
R136 VPB.n235 VPB.n234 76
R137 VPB.n262 VPB.n261 76
R138 VPB.n266 VPB.n265 76
R139 VPB.n271 VPB.n270 76
R140 VPB.n276 VPB.n275 76
R141 VPB.n283 VPB.n282 76
R142 VPB.n288 VPB.n287 76
R143 VPB.n293 VPB.n292 76
R144 VPB.n300 VPB.n299 76
R145 VPB.n305 VPB.n304 76
R146 VPB.n310 VPB.n309 76
R147 VPB.n314 VPB.n313 76
R148 VPB.n318 VPB.n317 76
R149 VPB.n345 VPB.n344 76
R150 VPB.n350 VPB.n349 76
R151 VPB.n355 VPB.n354 76
R152 VPB.n362 VPB.n361 76
R153 VPB.n367 VPB.n366 76
R154 VPB.n372 VPB.n371 76
R155 VPB.n377 VPB.n376 76
R156 VPB.n381 VPB.n380 76
R157 VPB.n408 VPB.n407 76
R158 VPB.n413 VPB.n412 76
R159 VPB.n418 VPB.n417 76
R160 VPB.n425 VPB.n424 76
R161 VPB.n430 VPB.n429 76
R162 VPB.n435 VPB.n434 76
R163 VPB.n440 VPB.n439 76
R164 VPB.n444 VPB.n443 76
R165 VPB.n471 VPB.n470 76
R166 VPB.n475 VPB.n474 76
R167 VPB.n480 VPB.n479 76
R168 VPB.n485 VPB.n484 76
R169 VPB.n492 VPB.n491 76
R170 VPB.n497 VPB.n496 76
R171 VPB.n502 VPB.n501 76
R172 VPB.n509 VPB.n508 76
R173 VPB.n514 VPB.n513 76
R174 VPB.n519 VPB.n518 76
R175 VPB.n523 VPB.n522 76
R176 VPB.n527 VPB.n526 76
R177 VPB.n554 VPB.n553 76
R178 VPB.n558 VPB.n557 76
R179 VPB.n563 VPB.n562 76
R180 VPB.n568 VPB.n567 76
R181 VPB.n575 VPB.n574 76
R182 VPB.n580 VPB.n579 76
R183 VPB.n585 VPB.n584 76
R184 VPB.n592 VPB.n591 76
R185 VPB.n597 VPB.n596 76
R186 VPB.n602 VPB.n601 76
R187 VPB.n606 VPB.n605 76
R188 VPB.n610 VPB.n609 76
R189 VPB.n637 VPB.n636 76
R190 VPB.n642 VPB.n641 76
R191 VPB.n647 VPB.n646 76
R192 VPB.n654 VPB.n653 76
R193 VPB.n659 VPB.n658 76
R194 VPB.n664 VPB.n663 76
R195 VPB.n669 VPB.n668 76
R196 VPB.n673 VPB.n672 76
R197 VPB.n700 VPB.n699 76
R198 VPB.n704 VPB.n703 76
R199 VPB.n709 VPB.n708 76
R200 VPB.n714 VPB.n713 76
R201 VPB.n721 VPB.n720 76
R202 VPB.n726 VPB.n725 76
R203 VPB.n731 VPB.n730 76
R204 VPB.n738 VPB.n737 76
R205 VPB.n743 VPB.n742 76
R206 VPB.n748 VPB.n747 76
R207 VPB.n752 VPB.n751 76
R208 VPB.n756 VPB.n755 76
R209 VPB.n783 VPB.n782 76
R210 VPB.n788 VPB.n787 76
R211 VPB.n793 VPB.n792 76
R212 VPB.n800 VPB.n799 76
R213 VPB.n805 VPB.n804 76
R214 VPB.n810 VPB.n809 76
R215 VPB.n815 VPB.n814 76
R216 VPB.n819 VPB.n818 76
R217 VPB.n846 VPB.n845 76
R218 VPB.n851 VPB.n850 76
R219 VPB.n856 VPB.n855 76
R220 VPB.n863 VPB.n862 76
R221 VPB.n868 VPB.n867 76
R222 VPB.n873 VPB.n872 76
R223 VPB.n878 VPB.n877 76
R224 VPB.n882 VPB.n881 76
R225 VPB.n909 VPB.n908 76
R226 VPB.n913 VPB.n912 76
R227 VPB.n918 VPB.n917 76
R228 VPB.n923 VPB.n922 76
R229 VPB.n930 VPB.n929 76
R230 VPB.n935 VPB.n934 76
R231 VPB.n940 VPB.n939 76
R232 VPB.n947 VPB.n946 76
R233 VPB.n952 VPB.n951 76
R234 VPB.n957 VPB.n956 76
R235 VPB.n961 VPB.n960 76
R236 VPB.n965 VPB.n964 76
R237 VPB.n992 VPB.n991 76
R238 VPB.n996 VPB.n995 76
R239 VPB.n1001 VPB.n1000 76
R240 VPB.n1006 VPB.n1005 76
R241 VPB.n1013 VPB.n1012 76
R242 VPB.n1018 VPB.n1017 76
R243 VPB.n1023 VPB.n1022 76
R244 VPB.n1030 VPB.n1029 76
R245 VPB.n1035 VPB.n1034 76
R246 VPB.n1040 VPB.n1039 76
R247 VPB.n1044 VPB.n1043 76
R248 VPB.n1048 VPB.n1047 76
R249 VPB.n1075 VPB.n1074 76
R250 VPB.n1080 VPB.n1079 76
R251 VPB.n1085 VPB.n1084 76
R252 VPB.n1092 VPB.n1091 76
R253 VPB.n1097 VPB.n1096 76
R254 VPB.n1102 VPB.n1101 76
R255 VPB.n1107 VPB.n1106 76
R256 VPB.n1111 VPB.n1110 76
R257 VPB.n1138 VPB.n1137 76
R258 VPB.n1142 VPB.n1141 76
R259 VPB.n1147 VPB.n1146 76
R260 VPB.n1152 VPB.n1151 76
R261 VPB.n1159 VPB.n1158 76
R262 VPB.n1164 VPB.n1163 76
R263 VPB.n1169 VPB.n1168 76
R264 VPB.n1176 VPB.n1175 76
R265 VPB.n1181 VPB.n1180 76
R266 VPB.n1186 VPB.n1185 76
R267 VPB.n1190 VPB.n1189 76
R268 VPB.n1194 VPB.n1193 76
R269 VPB.n1221 VPB.n1220 76
R270 VPB.n1226 VPB.n1225 76
R271 VPB.n1231 VPB.n1230 76
R272 VPB.n1238 VPB.n1237 76
R273 VPB.n1243 VPB.n1242 76
R274 VPB.n1248 VPB.n1247 76
R275 VPB.n1253 VPB.n1252 76
R276 VPB.n1257 VPB.n1256 76
R277 VPB.n1284 VPB.n1283 76
R278 VPB.n1289 VPB.n1288 76
R279 VPB.n1294 VPB.n1293 76
R280 VPB.n1301 VPB.n1300 76
R281 VPB.n1306 VPB.n1305 76
R282 VPB.n1311 VPB.n1310 76
R283 VPB.n1316 VPB.n1315 76
R284 VPB.n1320 VPB.n1319 76
R285 VPB.n1347 VPB.n1346 76
R286 VPB.n1351 VPB.n1350 76
R287 VPB.n1356 VPB.n1355 76
R288 VPB.n1361 VPB.n1360 76
R289 VPB.n1368 VPB.n1367 76
R290 VPB.n1373 VPB.n1372 76
R291 VPB.n1378 VPB.n1377 76
R292 VPB.n1385 VPB.n1384 76
R293 VPB.n1390 VPB.n1389 76
R294 VPB.n1395 VPB.n1394 76
R295 VPB.n1399 VPB.n1398 76
R296 VPB.n1403 VPB.n1402 76
R297 VPB.n1430 VPB.n1429 76
R298 VPB.n1434 VPB.n1433 76
R299 VPB.n1439 VPB.n1438 76
R300 VPB.n1444 VPB.n1443 76
R301 VPB.n1451 VPB.n1450 76
R302 VPB.n1456 VPB.n1455 76
R303 VPB.n1461 VPB.n1460 76
R304 VPB.n1468 VPB.n1467 76
R305 VPB.n1473 VPB.n1472 76
R306 VPB.n1478 VPB.n1477 76
R307 VPB.n1482 VPB.n1481 76
R308 VPB.n1486 VPB.n1485 76
R309 VPB.n302 VPB.n301 75.654
R310 VPB.n511 VPB.n510 75.654
R311 VPB.n594 VPB.n593 75.654
R312 VPB.n740 VPB.n739 75.654
R313 VPB.n949 VPB.n948 75.654
R314 VPB.n1032 VPB.n1031 75.654
R315 VPB.n1178 VPB.n1177 75.654
R316 VPB.n1387 VPB.n1386 75.654
R317 VPB.n1470 VPB.n1469 75.654
R318 VPB.n21 VPB.n20 61.764
R319 VPB.n1410 VPB.n1409 61.764
R320 VPB.n1327 VPB.n1326 61.764
R321 VPB.n1264 VPB.n1263 61.764
R322 VPB.n1201 VPB.n1200 61.764
R323 VPB.n1118 VPB.n1117 61.764
R324 VPB.n1055 VPB.n1054 61.764
R325 VPB.n972 VPB.n971 61.764
R326 VPB.n889 VPB.n888 61.764
R327 VPB.n826 VPB.n825 61.764
R328 VPB.n763 VPB.n762 61.764
R329 VPB.n680 VPB.n679 61.764
R330 VPB.n617 VPB.n616 61.764
R331 VPB.n534 VPB.n533 61.764
R332 VPB.n451 VPB.n450 61.764
R333 VPB.n388 VPB.n387 61.764
R334 VPB.n325 VPB.n324 61.764
R335 VPB.n242 VPB.n241 61.764
R336 VPB.n179 VPB.n178 61.764
R337 VPB.n124 VPB.n123 61.764
R338 VPB.n227 VPB.t53 55.465
R339 VPB.n200 VPB.t26 55.465
R340 VPB.n62 VPB.t38 55.106
R341 VPB.n1474 VPB.t71 55.106
R342 VPB.n1391 VPB.t14 55.106
R343 VPB.n1312 VPB.t11 55.106
R344 VPB.n1249 VPB.t86 55.106
R345 VPB.n1182 VPB.t54 55.106
R346 VPB.n1103 VPB.t36 55.106
R347 VPB.n1036 VPB.t2 55.106
R348 VPB.n953 VPB.t66 55.106
R349 VPB.n874 VPB.t28 55.106
R350 VPB.n811 VPB.t32 55.106
R351 VPB.n744 VPB.t7 55.106
R352 VPB.n665 VPB.t35 55.106
R353 VPB.n598 VPB.t6 55.106
R354 VPB.n515 VPB.t25 55.106
R355 VPB.n436 VPB.t56 55.106
R356 VPB.n373 VPB.t23 55.106
R357 VPB.n306 VPB.t57 55.106
R358 VPB.n44 VPB.t59 55.106
R359 VPB.n1435 VPB.t0 55.106
R360 VPB.n1352 VPB.t4 55.106
R361 VPB.n1285 VPB.t44 55.106
R362 VPB.n1222 VPB.t9 55.106
R363 VPB.n1143 VPB.t3 55.106
R364 VPB.n1076 VPB.t30 55.106
R365 VPB.n997 VPB.t90 55.106
R366 VPB.n914 VPB.t88 55.106
R367 VPB.n847 VPB.t51 55.106
R368 VPB.n784 VPB.t8 55.106
R369 VPB.n705 VPB.t92 55.106
R370 VPB.n638 VPB.t15 55.106
R371 VPB.n559 VPB.t64 55.106
R372 VPB.n476 VPB.t13 55.106
R373 VPB.n409 VPB.t42 55.106
R374 VPB.n346 VPB.t55 55.106
R375 VPB.n267 VPB.t16 55.106
R376 VPB.n206 VPB.n205 48.952
R377 VPB.n280 VPB.n279 48.952
R378 VPB.n352 VPB.n351 48.952
R379 VPB.n415 VPB.n414 48.952
R380 VPB.n489 VPB.n488 48.952
R381 VPB.n572 VPB.n571 48.952
R382 VPB.n644 VPB.n643 48.952
R383 VPB.n718 VPB.n717 48.952
R384 VPB.n790 VPB.n789 48.952
R385 VPB.n853 VPB.n852 48.952
R386 VPB.n927 VPB.n926 48.952
R387 VPB.n1010 VPB.n1009 48.952
R388 VPB.n1082 VPB.n1081 48.952
R389 VPB.n1156 VPB.n1155 48.952
R390 VPB.n1228 VPB.n1227 48.952
R391 VPB.n1291 VPB.n1290 48.952
R392 VPB.n1365 VPB.n1364 48.952
R393 VPB.n1448 VPB.n1447 48.952
R394 VPB.n46 VPB.n45 48.952
R395 VPB.n223 VPB.n222 44.502
R396 VPB.n297 VPB.n296 44.502
R397 VPB.n369 VPB.n368 44.502
R398 VPB.n432 VPB.n431 44.502
R399 VPB.n506 VPB.n505 44.502
R400 VPB.n589 VPB.n588 44.502
R401 VPB.n661 VPB.n660 44.502
R402 VPB.n735 VPB.n734 44.502
R403 VPB.n807 VPB.n806 44.502
R404 VPB.n870 VPB.n869 44.502
R405 VPB.n944 VPB.n943 44.502
R406 VPB.n1027 VPB.n1026 44.502
R407 VPB.n1099 VPB.n1098 44.502
R408 VPB.n1173 VPB.n1172 44.502
R409 VPB.n1245 VPB.n1244 44.502
R410 VPB.n1308 VPB.n1307 44.502
R411 VPB.n1382 VPB.n1381 44.502
R412 VPB.n1465 VPB.n1464 44.502
R413 VPB.n59 VPB.n58 44.502
R414 VPB.n211 VPB.n210 41.183
R415 VPB.n53 VPB.n14 40.824
R416 VPB.n1463 VPB.n1462 40.824
R417 VPB.n1446 VPB.n1445 40.824
R418 VPB.n1380 VPB.n1379 40.824
R419 VPB.n1363 VPB.n1362 40.824
R420 VPB.n1296 VPB.n1295 40.824
R421 VPB.n1233 VPB.n1232 40.824
R422 VPB.n1171 VPB.n1170 40.824
R423 VPB.n1154 VPB.n1153 40.824
R424 VPB.n1087 VPB.n1086 40.824
R425 VPB.n1025 VPB.n1024 40.824
R426 VPB.n1008 VPB.n1007 40.824
R427 VPB.n942 VPB.n941 40.824
R428 VPB.n925 VPB.n924 40.824
R429 VPB.n858 VPB.n857 40.824
R430 VPB.n795 VPB.n794 40.824
R431 VPB.n733 VPB.n732 40.824
R432 VPB.n716 VPB.n715 40.824
R433 VPB.n649 VPB.n648 40.824
R434 VPB.n587 VPB.n586 40.824
R435 VPB.n570 VPB.n569 40.824
R436 VPB.n504 VPB.n503 40.824
R437 VPB.n487 VPB.n486 40.824
R438 VPB.n420 VPB.n419 40.824
R439 VPB.n357 VPB.n356 40.824
R440 VPB.n295 VPB.n294 40.824
R441 VPB.n278 VPB.n277 40.824
R442 VPB.n100 VPB.n99 35.118
R443 VPB.n1493 VPB.n1492 35.118
R444 VPB.n1498 VPB.n1494 20.452
R445 VPB.n89 VPB.n86 20.452
R446 VPB.n213 VPB.n212 17.801
R447 VPB.n285 VPB.n284 17.801
R448 VPB.n359 VPB.n358 17.801
R449 VPB.n422 VPB.n421 17.801
R450 VPB.n494 VPB.n493 17.801
R451 VPB.n577 VPB.n576 17.801
R452 VPB.n651 VPB.n650 17.801
R453 VPB.n723 VPB.n722 17.801
R454 VPB.n797 VPB.n796 17.801
R455 VPB.n860 VPB.n859 17.801
R456 VPB.n932 VPB.n931 17.801
R457 VPB.n1015 VPB.n1014 17.801
R458 VPB.n1089 VPB.n1088 17.801
R459 VPB.n1161 VPB.n1160 17.801
R460 VPB.n1235 VPB.n1234 17.801
R461 VPB.n1298 VPB.n1297 17.801
R462 VPB.n1370 VPB.n1369 17.801
R463 VPB.n1453 VPB.n1452 17.801
R464 VPB.n50 VPB.n49 17.801
R465 VPB.n14 VPB.t62 14.282
R466 VPB.n14 VPB.t39 14.282
R467 VPB.n1462 VPB.t50 14.282
R468 VPB.n1462 VPB.t68 14.282
R469 VPB.n1445 VPB.t20 14.282
R470 VPB.n1445 VPB.t49 14.282
R471 VPB.n1379 VPB.t75 14.282
R472 VPB.n1379 VPB.t67 14.282
R473 VPB.n1362 VPB.t22 14.282
R474 VPB.n1362 VPB.t74 14.282
R475 VPB.n1295 VPB.t43 14.282
R476 VPB.n1295 VPB.t5 14.282
R477 VPB.n1232 VPB.t29 14.282
R478 VPB.n1232 VPB.t60 14.282
R479 VPB.n1170 VPB.t73 14.282
R480 VPB.n1170 VPB.t58 14.282
R481 VPB.n1153 VPB.t21 14.282
R482 VPB.n1153 VPB.t76 14.282
R483 VPB.n1086 VPB.t31 14.282
R484 VPB.n1086 VPB.t37 14.282
R485 VPB.n1024 VPB.t47 14.282
R486 VPB.n1024 VPB.t65 14.282
R487 VPB.n1007 VPB.t91 14.282
R488 VPB.n1007 VPB.t48 14.282
R489 VPB.n941 VPB.t77 14.282
R490 VPB.n941 VPB.t85 14.282
R491 VPB.n924 VPB.t89 14.282
R492 VPB.n924 VPB.t78 14.282
R493 VPB.n857 VPB.t52 14.282
R494 VPB.n857 VPB.t27 14.282
R495 VPB.n794 VPB.t17 14.282
R496 VPB.n794 VPB.t33 14.282
R497 VPB.n732 VPB.t84 14.282
R498 VPB.n732 VPB.t1 14.282
R499 VPB.n715 VPB.t87 14.282
R500 VPB.n715 VPB.t80 14.282
R501 VPB.n648 VPB.t72 14.282
R502 VPB.n648 VPB.t34 14.282
R503 VPB.n586 VPB.t46 14.282
R504 VPB.n586 VPB.t24 14.282
R505 VPB.n569 VPB.t70 14.282
R506 VPB.n569 VPB.t45 14.282
R507 VPB.n503 VPB.t82 14.282
R508 VPB.n503 VPB.t10 14.282
R509 VPB.n486 VPB.t18 14.282
R510 VPB.n486 VPB.t79 14.282
R511 VPB.n419 VPB.t41 14.282
R512 VPB.n419 VPB.t93 14.282
R513 VPB.n356 VPB.t63 14.282
R514 VPB.n356 VPB.t69 14.282
R515 VPB.n294 VPB.t81 14.282
R516 VPB.n294 VPB.t40 14.282
R517 VPB.n277 VPB.t19 14.282
R518 VPB.n277 VPB.t83 14.282
R519 VPB.n210 VPB.t12 14.282
R520 VPB.n210 VPB.t61 14.282
R521 VPB.n89 VPB.n88 13.653
R522 VPB.n88 VPB.n87 13.653
R523 VPB.n98 VPB.n97 13.653
R524 VPB.n97 VPB.n96 13.653
R525 VPB.n95 VPB.n94 13.653
R526 VPB.n94 VPB.n93 13.653
R527 VPB.n92 VPB.n91 13.653
R528 VPB.n91 VPB.n90 13.653
R529 VPB.n104 VPB.n103 13.653
R530 VPB.n103 VPB.n102 13.653
R531 VPB.n108 VPB.n107 13.653
R532 VPB.n107 VPB.n106 13.653
R533 VPB.n112 VPB.n111 13.653
R534 VPB.n111 VPB.n110 13.653
R535 VPB.n116 VPB.n115 13.653
R536 VPB.n115 VPB.n114 13.653
R537 VPB.n143 VPB.n142 13.653
R538 VPB.n142 VPB.n141 13.653
R539 VPB.n147 VPB.n146 13.653
R540 VPB.n146 VPB.n145 13.653
R541 VPB.n151 VPB.n150 13.653
R542 VPB.n150 VPB.n149 13.653
R543 VPB.n155 VPB.n154 13.653
R544 VPB.n154 VPB.n153 13.653
R545 VPB.n159 VPB.n158 13.653
R546 VPB.n158 VPB.n157 13.653
R547 VPB.n163 VPB.n162 13.653
R548 VPB.n162 VPB.n161 13.653
R549 VPB.n167 VPB.n166 13.653
R550 VPB.n166 VPB.n165 13.653
R551 VPB.n171 VPB.n170 13.653
R552 VPB.n170 VPB.n169 13.653
R553 VPB.n198 VPB.n197 13.653
R554 VPB.n197 VPB.n196 13.653
R555 VPB.n203 VPB.n202 13.653
R556 VPB.n202 VPB.n201 13.653
R557 VPB.n208 VPB.n207 13.653
R558 VPB.n207 VPB.n206 13.653
R559 VPB.n215 VPB.n214 13.653
R560 VPB.n214 VPB.n213 13.653
R561 VPB.n220 VPB.n219 13.653
R562 VPB.n219 VPB.n218 13.653
R563 VPB.n225 VPB.n224 13.653
R564 VPB.n224 VPB.n223 13.653
R565 VPB.n230 VPB.n229 13.653
R566 VPB.n229 VPB.n228 13.653
R567 VPB.n234 VPB.n233 13.653
R568 VPB.n233 VPB.n232 13.653
R569 VPB.n261 VPB.n260 13.653
R570 VPB.n260 VPB.n259 13.653
R571 VPB.n265 VPB.n264 13.653
R572 VPB.n264 VPB.n263 13.653
R573 VPB.n270 VPB.n269 13.653
R574 VPB.n269 VPB.n268 13.653
R575 VPB.n275 VPB.n274 13.653
R576 VPB.n274 VPB.n273 13.653
R577 VPB.n282 VPB.n281 13.653
R578 VPB.n281 VPB.n280 13.653
R579 VPB.n287 VPB.n286 13.653
R580 VPB.n286 VPB.n285 13.653
R581 VPB.n292 VPB.n291 13.653
R582 VPB.n291 VPB.n290 13.653
R583 VPB.n299 VPB.n298 13.653
R584 VPB.n298 VPB.n297 13.653
R585 VPB.n304 VPB.n303 13.653
R586 VPB.n303 VPB.n302 13.653
R587 VPB.n309 VPB.n308 13.653
R588 VPB.n308 VPB.n307 13.653
R589 VPB.n313 VPB.n312 13.653
R590 VPB.n312 VPB.n311 13.653
R591 VPB.n317 VPB.n316 13.653
R592 VPB.n316 VPB.n315 13.653
R593 VPB.n344 VPB.n343 13.653
R594 VPB.n343 VPB.n342 13.653
R595 VPB.n349 VPB.n348 13.653
R596 VPB.n348 VPB.n347 13.653
R597 VPB.n354 VPB.n353 13.653
R598 VPB.n353 VPB.n352 13.653
R599 VPB.n361 VPB.n360 13.653
R600 VPB.n360 VPB.n359 13.653
R601 VPB.n366 VPB.n365 13.653
R602 VPB.n365 VPB.n364 13.653
R603 VPB.n371 VPB.n370 13.653
R604 VPB.n370 VPB.n369 13.653
R605 VPB.n376 VPB.n375 13.653
R606 VPB.n375 VPB.n374 13.653
R607 VPB.n380 VPB.n379 13.653
R608 VPB.n379 VPB.n378 13.653
R609 VPB.n407 VPB.n406 13.653
R610 VPB.n406 VPB.n405 13.653
R611 VPB.n412 VPB.n411 13.653
R612 VPB.n411 VPB.n410 13.653
R613 VPB.n417 VPB.n416 13.653
R614 VPB.n416 VPB.n415 13.653
R615 VPB.n424 VPB.n423 13.653
R616 VPB.n423 VPB.n422 13.653
R617 VPB.n429 VPB.n428 13.653
R618 VPB.n428 VPB.n427 13.653
R619 VPB.n434 VPB.n433 13.653
R620 VPB.n433 VPB.n432 13.653
R621 VPB.n439 VPB.n438 13.653
R622 VPB.n438 VPB.n437 13.653
R623 VPB.n443 VPB.n442 13.653
R624 VPB.n442 VPB.n441 13.653
R625 VPB.n470 VPB.n469 13.653
R626 VPB.n469 VPB.n468 13.653