* SPICE3 file created from TMRDFFSNRNQNX1.ext - technology: sky130A

.subckt TMRDFFSNRNQNX1 SN RN D CLK Q VPB VNB
M1000 a_4447_943.t5 SN VPB.t37 pshort w=2u l=0.15u
+  ad=0p pd=0u as=0p ps=0u
M1001 VPB.t55 CLK a_6371_943.t5 pshort w=2u l=0.15u
+  ad=0p pd=0u as=0p ps=0u
M1002 a_7333_943.t5 RN VPB.t86 pshort w=2u l=0.15u
+  ad=0p pd=0u as=0p ps=0u
M1003 VPB.t91 D a_6049_1004.t6 pshort w=2u l=0.15u
+  ad=0p pd=0u as=0p ps=0u
M1004 VNB a_6049_1004.t8 a_6825_75.t0 nshort w=-1.605u l=1.765u
+  ad=3.7611p pd=32.97u as=0p ps=0u
M1005 a_7973_1004.t1 SN VPB.t45 pshort w=2u l=0.15u
+  ad=0p pd=0u as=0p ps=0u
M1006 a_18197_1005.t6 a_9897_1004.t7 Q.t4 pshort w=2u l=0.15u
+  ad=0p pd=0u as=0p ps=0u
M1007 VPB.t105 a_4125_1004.t7 a_17533_1005.t2 pshort w=2u l=0.15u
+  ad=0p pd=0u as=0p ps=0u
M1008 VNB a_4125_1004.t11 a_4901_75.t0 nshort w=-1.605u l=1.765u
+  ad=0p pd=0u as=0p ps=0u
M1009 VPB.t95 D a_277_1004.t6 pshort w=2u l=0.15u
+  ad=0p pd=0u as=0p ps=0u
M1010 VPB.t90 D a_11821_1004.t3 pshort w=2u l=0.15u
+  ad=0p pd=0u as=0p ps=0u
M1011 VNB a_4125_1004.t15 a_17428_73.t0 nshort w=-1.605u l=1.765u
+  ad=0p pd=0u as=0p ps=0u
M1012 VPB.t78 RN a_15669_1004.t1 pshort w=2u l=0.15u
+  ad=0p pd=0u as=0p ps=0u
M1013 a_599_943.t2 CLK VPB.t59 pshort w=2u l=0.15u
+  ad=0p pd=0u as=0p ps=0u
M1014 VPB.t85 RN a_9897_1004.t6 pshort w=2u l=0.15u
+  ad=0p pd=0u as=0p ps=0u
M1015 VPB.t63 CLK a_1561_943.t3 pshort w=2u l=0.15u
+  ad=0p pd=0u as=0p ps=0u
M1016 a_11821_1004.t6 a_12143_943.t8 VPB.t20 pshort w=2u l=0.15u
+  ad=0p pd=0u as=0p ps=0u
M1017 VPB.t34 a_13105_943.t7 a_13745_1004.t5 pshort w=2u l=0.15u
+  ad=0p pd=0u as=0p ps=0u
M1018 Q a_15669_1004.t7 a_18094_73.t0 nshort w=-1.235u l=1.535u
+  ad=0.5373p pd=4.72u as=0p ps=0u
M1019 VNB D a_11635_75.t0 nshort w=-1.605u l=1.765u
+  ad=0p pd=0u as=0p ps=0u
M1020 VPB.t13 a_277_1004.t7 a_2201_1004.t3 pshort w=2u l=0.15u
+  ad=0p pd=0u as=0p ps=0u
M1021 a_7333_943.t3 CLK VPB.t58 pshort w=2u l=0.15u
+  ad=0p pd=0u as=0p ps=0u
M1022 a_10219_943.t1 SN VPB.t41 pshort w=2u l=0.15u
+  ad=0p pd=0u as=0p ps=0u
M1023 VPB.t104 a_7333_943.t7 a_6371_943.t6 pshort w=2u l=0.15u
+  ad=0p pd=0u as=0p ps=0u
M1024 VPB.t61 CLK a_12143_943.t4 pshort w=2u l=0.15u
+  ad=0p pd=0u as=0p ps=0u
M1025 a_13105_943.t6 RN VPB.t82 pshort w=2u l=0.15u
+  ad=0p pd=0u as=0p ps=0u
M1026 VNB a_6049_1004.t10 a_7787_75.t0 nshort w=-1.605u l=1.765u
+  ad=0p pd=0u as=0p ps=0u
M1027 VNB a_6371_943.t10 a_9711_75.t0 nshort w=-1.605u l=1.765u
+  ad=0p pd=0u as=0p ps=0u
M1028 VNB D a_5863_75.t0 nshort w=-1.605u l=1.765u
+  ad=0p pd=0u as=0p ps=0u
M1029 VPB.t80 RN a_277_1004.t4 pshort w=2u l=0.15u
+  ad=0p pd=0u as=0p ps=0u
M1030 a_6371_943.t3 a_6049_1004.t7 VPB.t17 pshort w=2u l=0.15u
+  ad=0p pd=0u as=0p ps=0u
M1031 VPB.t51 a_7973_1004.t7 a_7333_943.t1 pshort w=2u l=0.15u
+  ad=0p pd=0u as=0p ps=0u
M1032 VPB.t50 a_9897_1004.t8 a_10219_943.t3 pshort w=2u l=0.15u
+  ad=0p pd=0u as=0p ps=0u
M1033 a_17533_1005.t1 a_4125_1004.t8 VPB.t68 pshort w=2u l=0.15u
+  ad=0p pd=0u as=0p ps=0u
M1034 a_12143_943.t3 CLK VPB.t57 pshort w=2u l=0.15u
+  ad=0p pd=0u as=0p ps=0u
M1035 a_599_943.t6 a_1561_943.t8 VPB.t109 pshort w=2u l=0.15u
+  ad=0p pd=0u as=0p ps=0u
M1036 a_15991_943.t3 a_15669_1004.t9 VPB.t99 pshort w=2u l=0.15u
+  ad=0p pd=0u as=0p ps=0u
M1037 VPB.t83 RN a_1561_943.t6 pshort w=2u l=0.15u
+  ad=0p pd=0u as=0p ps=0u
M1038 a_9897_1004.t4 a_6371_943.t7 VPB.t100 pshort w=2u l=0.15u
+  ad=0p pd=0u as=0p ps=0u
M1039 VNB a_11821_1004.t9 a_12597_75.t0 nshort w=-1.605u l=1.765u
+  ad=0p pd=0u as=0p ps=0u
M1040 a_4125_1004.t0 a_599_943.t7 VPB.t27 pshort w=2u l=0.15u
+  ad=0p pd=0u as=0p ps=0u
M1041 VPB.t38 SN a_2201_1004.t1 pshort w=2u l=0.15u
+  ad=0p pd=0u as=0p ps=0u
M1042 VNB a_13745_1004.t9 a_14521_75.t0 nshort w=-1.605u l=1.765u
+  ad=0p pd=0u as=0p ps=0u
M1043 a_4125_1004.t3 a_4447_943.t8 VPB.t66 pshort w=2u l=0.15u
+  ad=0p pd=0u as=0p ps=0u
M1044 VNB a_9897_1004.t14 a_10673_75.t0 nshort w=-1.605u l=1.765u
+  ad=0p pd=0u as=0p ps=0u
M1045 VPB.t8 a_6371_943.t8 a_6049_1004.t2 pshort w=2u l=0.15u
+  ad=0p pd=0u as=0p ps=0u
M1046 a_18197_1005.t3 a_4125_1004.t9 a_17533_1005.t4 pshort w=2u l=0.15u
+  ad=0p pd=0u as=0p ps=0u
M1047 a_1561_943.t2 CLK VPB.t62 pshort w=2u l=0.15u
+  ad=0p pd=0u as=0p ps=0u
M1048 VNB a_7973_1004.t9 a_8749_75.t0 nshort w=-1.605u l=1.765u
+  ad=0p pd=0u as=0p ps=0u
M1049 VPB.t21 a_599_943.t8 a_277_1004.t1 pshort w=2u l=0.15u
+  ad=0p pd=0u as=0p ps=0u
M1050 VNB D a_91_75.t0 nshort w=-1.605u l=1.765u
+  ad=0p pd=0u as=0p ps=0u
M1051 a_13745_1004.t1 SN VPB.t46 pshort w=2u l=0.15u
+  ad=0p pd=0u as=0p ps=0u
M1052 a_17533_1005.t6 a_9897_1004.t9 VPB.t98 pshort w=2u l=0.15u
+  ad=0p pd=0u as=0p ps=0u
M1053 a_12143_943.t6 a_11821_1004.t7 VPB.t106 pshort w=2u l=0.15u
+  ad=0p pd=0u as=0p ps=0u
M1054 VPB.t33 a_13745_1004.t7 a_13105_943.t0 pshort w=2u l=0.15u
+  ad=0p pd=0u as=0p ps=0u
M1055 a_15991_943.t1 SN VPB.t47 pshort w=2u l=0.15u
+  ad=0p pd=0u as=0p ps=0u
M1056 a_15669_1004.t5 a_12143_943.t10 VPB.t64 pshort w=2u l=0.15u
+  ad=0p pd=0u as=0p ps=0u
M1057 a_4125_1004.t6 RN VPB.t79 pshort w=2u l=0.15u
+  ad=0p pd=0u as=0p ps=0u
M1058 VNB a_11821_1004.t12 a_13559_75.t0 nshort w=-1.605u l=1.765u
+  ad=0p pd=0u as=0p ps=0u
M1059 VPB.t102 a_1561_943.t11 a_2201_1004.t6 pshort w=2u l=0.15u
+  ad=0p pd=0u as=0p ps=0u
M1060 VPB.t76 RN a_6049_1004.t4 pshort w=2u l=0.15u
+  ad=0p pd=0u as=0p ps=0u
M1061 a_7333_943.t0 a_7973_1004.t8 VPB.t14 pshort w=2u l=0.15u
+  ad=0p pd=0u as=0p ps=0u
M1062 a_7973_1004.t5 a_7333_943.t10 VPB.t31 pshort w=2u l=0.15u
+  ad=0p pd=0u as=0p ps=0u
M1063 a_9897_1004.t1 a_10219_943.t8 VPB.t7 pshort w=2u l=0.15u
+  ad=0p pd=0u as=0p ps=0u
M1064 VPB.t5 a_13105_943.t8 a_15991_943.t6 pshort w=2u l=0.15u
+  ad=0p pd=0u as=0p ps=0u
M1065 VNB a_12143_943.t7 a_15483_75.t0 nshort w=-1.605u l=1.765u
+  ad=0p pd=0u as=0p ps=0u
M1066 a_1561_943.t1 a_2201_1004.t8 VPB.t12 pshort w=2u l=0.15u
+  ad=0p pd=0u as=0p ps=0u
M1067 a_18197_1005.t7 a_15669_1004.t10 a_17533_1005.t7 pshort w=2u l=0.15u
+  ad=0p pd=0u as=0p ps=0u
M1068 VPB.t30 a_4125_1004.t10 a_4447_943.t3 pshort w=2u l=0.15u
+  ad=0p pd=0u as=0p ps=0u
M1069 a_6371_943.t4 CLK VPB.t56 pshort w=2u l=0.15u
+  ad=0p pd=0u as=0p ps=0u
M1070 VPB.t52 CLK a_7333_943.t2 pshort w=2u l=0.15u
+  ad=0p pd=0u as=0p ps=0u
M1071 a_6049_1004.t5 D VPB.t92 pshort w=2u l=0.15u
+  ad=0p pd=0u as=0p ps=0u
M1072 Q a_9897_1004.t10 a_17428_73.t1 nshort w=-1.605u l=1.765u
+  ad=0p pd=0u as=0p ps=0u
M1073 Q.t2 a_9897_1004.t11 a_18197_1005.t5 pshort w=2u l=0.15u
+  ad=0p pd=0u as=0p ps=0u
M1074 a_277_1004.t5 D VPB.t93 pshort w=2u l=0.15u
+  ad=0p pd=0u as=0p ps=0u
M1075 VPB.t53 CLK a_13105_943.t3 pshort w=2u l=0.15u
+  ad=0p pd=0u as=0p ps=0u
M1076 a_15991_943.t5 a_13105_943.t10 VPB.t2 pshort w=2u l=0.15u
+  ad=0p pd=0u as=0p ps=0u
M1077 VNB a_15669_1004.t8 a_16445_75.t0 nshort w=-1.605u l=1.765u
+  ad=0p pd=0u as=0p ps=0u
M1078 VPB.t70 a_11821_1004.t8 a_13745_1004.t3 pshort w=2u l=0.15u
+  ad=0p pd=0u as=0p ps=0u
M1079 a_10219_943.t6 a_7333_943.t12 VPB.t32 pshort w=2u l=0.15u
+  ad=0p pd=0u as=0p ps=0u
M1080 a_15669_1004.t0 RN VPB.t84 pshort w=2u l=0.15u
+  ad=0p pd=0u as=0p ps=0u
M1081 VPB.t10 a_13105_943.t11 a_12143_943.t1 pshort w=2u l=0.15u
+  ad=0p pd=0u as=0p ps=0u
M1082 VPB.t29 a_277_1004.t10 a_599_943.t4 pshort w=2u l=0.15u
+  ad=0p pd=0u as=0p ps=0u
M1083 a_9897_1004.t5 RN VPB.t87 pshort w=2u l=0.15u
+  ad=0p pd=0u as=0p ps=0u
M1084 VPB.t89 RN a_11821_1004.t1 pshort w=2u l=0.15u
+  ad=0p pd=0u as=0p ps=0u
M1085 VPB.t108 a_1561_943.t12 a_599_943.t5 pshort w=2u l=0.15u
+  ad=0p pd=0u as=0p ps=0u
M1086 a_13745_1004.t4 a_13105_943.t12 VPB.t9 pshort w=2u l=0.15u
+  ad=0p pd=0u as=0p ps=0u
M1087 VPB.t42 SN a_4447_943.t4 pshort w=2u l=0.15u
+  ad=0p pd=0u as=0p ps=0u
M1088 a_18197_1005.t2 a_15669_1004.t11 Q.t0 pshort w=2u l=0.15u
+  ad=0p pd=0u as=0p ps=0u
M1089 VPB.t96 a_15991_943.t7 a_15669_1004.t2 pshort w=2u l=0.15u
+  ad=0p pd=0u as=0p ps=0u
M1090 a_6371_943.t0 a_7333_943.t13 VPB.t1 pshort w=2u l=0.15u
+  ad=0p pd=0u as=0p ps=0u
M1091 VPB.t72 RN a_7333_943.t4 pshort w=2u l=0.15u
+  ad=0p pd=0u as=0p ps=0u
M1092 VPB.t44 SN a_7973_1004.t0 pshort w=2u l=0.15u
+  ad=0p pd=0u as=0p ps=0u
M1093 a_277_1004.t3 RN VPB.t88 pshort w=2u l=0.15u
+  ad=0p pd=0u as=0p ps=0u
M1094 a_11821_1004.t0 RN VPB.t74 pshort w=2u l=0.15u
+  ad=0p pd=0u as=0p ps=0u
M1095 VNB a_277_1004.t8 a_2015_75.t0 nshort w=-1.605u l=1.765u
+  ad=0p pd=0u as=0p ps=0u
M1096 VPB.t43 SN a_13745_1004.t0 pshort w=2u l=0.15u
+  ad=0p pd=0u as=0p ps=0u
M1097 a_10219_943.t2 a_9897_1004.t12 VPB.t28 pshort w=2u l=0.15u
+  ad=0p pd=0u as=0p ps=0u
M1098 VPB.t60 CLK a_599_943.t1 pshort w=2u l=0.15u
+  ad=0p pd=0u as=0p ps=0u
M1099 VPB.t103 a_12143_943.t11 a_11821_1004.t5 pshort w=2u l=0.15u
+  ad=0p pd=0u as=0p ps=0u
M1100 a_1561_943.t5 RN VPB.t81 pshort w=2u l=0.15u
+  ad=0p pd=0u as=0p ps=0u
M1101 VPB.t101 a_1561_943.t13 a_4447_943.t6 pshort w=2u l=0.15u
+  ad=0p pd=0u as=0p ps=0u
M1102 a_2201_1004.t0 SN VPB.t39 pshort w=2u l=0.15u
+  ad=0p pd=0u as=0p ps=0u
M1103 VPB.t77 RN a_4125_1004.t5 pshort w=2u l=0.15u
+  ad=0p pd=0u as=0p ps=0u
M1104 a_12143_943.t2 a_13105_943.t14 VPB.t36 pshort w=2u l=0.15u
+  ad=0p pd=0u as=0p ps=0u
M1105 VPB.t19 a_6049_1004.t9 a_7973_1004.t3 pshort w=2u l=0.15u
+  ad=0p pd=0u as=0p ps=0u
M1106 VPB.t73 RN a_13105_943.t5 pshort w=2u l=0.15u
+  ad=0p pd=0u as=0p ps=0u
M1107 a_599_943.t3 a_277_1004.t11 VPB.t110 pshort w=2u l=0.15u
+  ad=0p pd=0u as=0p ps=0u
M1108 a_277_1004.t2 a_599_943.t10 VPB.t26 pshort w=2u l=0.15u
+  ad=0p pd=0u as=0p ps=0u
M1109 a_11821_1004.t2 D VPB.t94 pshort w=2u l=0.15u
+  ad=0p pd=0u as=0p ps=0u
M1110 VNB a_2201_1004.t7 a_2977_75.t0 nshort w=-1.605u l=1.765u
+  ad=0p pd=0u as=0p ps=0u
M1111 VNB a_15669_1004.t12 a_18760_73.t0 nshort w=-1.605u l=1.765u
+  ad=0p pd=0u as=0p ps=0u
M1112 VNB a_4125_1004.t12 a_18094_73.t0 nshort w=-1.605u l=1.765u
+  ad=0p pd=0u as=0p ps=0u
M1113 a_13105_943.t1 a_13745_1004.t8 VPB.t35 pshort w=2u l=0.15u
+  ad=0p pd=0u as=0p ps=0u
M1114 VPB.t4 a_15669_1004.t13 a_15991_943.t2 pshort w=2u l=0.15u
+  ad=0p pd=0u as=0p ps=0u
M1115 VNB a_277_1004.t9 a_1053_75.t0 nshort w=-1.605u l=1.765u
+  ad=0p pd=0u as=0p ps=0u
M1116 a_7973_1004.t2 a_6049_1004.t11 VPB.t67 pshort w=2u l=0.15u
+  ad=0p pd=0u as=0p ps=0u
M1117 VPB.t0 a_6371_943.t11 a_9897_1004.t3 pshort w=2u l=0.15u
+  ad=0p pd=0u as=0p ps=0u
M1118 a_2201_1004.t2 a_277_1004.t12 VPB.t97 pshort w=2u l=0.15u
+  ad=0p pd=0u as=0p ps=0u
M1119 VPB.t23 a_7333_943.t14 a_10219_943.t5 pshort w=2u l=0.15u
+  ad=0p pd=0u as=0p ps=0u
M1120 a_2201_1004.t5 a_1561_943.t14 VPB.t107 pshort w=2u l=0.15u
+  ad=0p pd=0u as=0p ps=0u
M1121 VPB.t49 a_599_943.t12 a_4125_1004.t4 pshort w=2u l=0.15u
+  ad=0p pd=0u as=0p ps=0u
M1122 VPB.t15 a_4447_943.t9 a_4125_1004.t2 pshort w=2u l=0.15u
+  ad=0p pd=0u as=0p ps=0u
M1123 a_6049_1004.t3 RN VPB.t75 pshort w=2u l=0.15u
+  ad=0p pd=0u as=0p ps=0u
M1124 a_17533_1005.t3 a_4125_1004.t13 a_18197_1005.t1 pshort w=2u l=0.15u
+  ad=0p pd=0u as=0p ps=0u
M1125 a_4447_943.t1 a_4125_1004.t14 VPB.t24 pshort w=2u l=0.15u
+  ad=0p pd=0u as=0p ps=0u
M1126 VPB.t16 a_6049_1004.t12 a_6371_943.t2 pshort w=2u l=0.15u
+  ad=0p pd=0u as=0p ps=0u
M1127 a_4447_943.t2 a_1561_943.t15 VPB.t25 pshort w=2u l=0.15u
+  ad=0p pd=0u as=0p ps=0u
M1128 Q a_9897_1004.t13 a_18760_73.t0 nshort w=-1.83u l=2.06u
+  ad=0p pd=0u as=0p ps=0u
M1129 VNB a_599_943.t9 a_3939_75.t0 nshort w=-1.605u l=1.765u
+  ad=0p pd=0u as=0p ps=0u
M1130 a_15669_1004.t6 a_15991_943.t9 VPB.t111 pshort w=2u l=0.15u
+  ad=0p pd=0u as=0p ps=0u
M1131 VPB.t69 a_11821_1004.t10 a_12143_943.t5 pshort w=2u l=0.15u
+  ad=0p pd=0u as=0p ps=0u
M1132 VPB.t18 a_9897_1004.t15 a_17533_1005.t5 pshort w=2u l=0.15u
+  ad=0p pd=0u as=0p ps=0u
M1133 a_13105_943.t2 CLK VPB.t54 pshort w=2u l=0.15u
+  ad=0p pd=0u as=0p ps=0u
M1134 VPB.t48 SN a_15991_943.t0 pshort w=2u l=0.15u
+  ad=0p pd=0u as=0p ps=0u
M1135 VPB.t40 SN a_10219_943.t0 pshort w=2u l=0.15u
+  ad=0p pd=0u as=0p ps=0u
M1136 a_13745_1004.t2 a_11821_1004.t11 VPB.t3 pshort w=2u l=0.15u
+  ad=0p pd=0u as=0p ps=0u
M1137 VPB.t22 a_12143_943.t12 a_15669_1004.t4 pshort w=2u l=0.15u
+  ad=0p pd=0u as=0p ps=0u
M1138 a_6049_1004.t1 a_6371_943.t12 VPB.t71 pshort w=2u l=0.15u
+  ad=0p pd=0u as=0p ps=0u
M1139 VPB.t65 a_7333_943.t15 a_7973_1004.t4 pshort w=2u l=0.15u
+  ad=0p pd=0u as=0p ps=0u
M1140 VPB.t6 a_10219_943.t9 a_9897_1004.t0 pshort w=2u l=0.15u
+  ad=0p pd=0u as=0p ps=0u
M1141 VPB.t11 a_2201_1004.t9 a_1561_943.t0 pshort w=2u l=0.15u
+  ad=0p pd=0u as=0p ps=0u
M1142 Q.t1 a_15669_1004.t14 a_18197_1005.t4 pshort w=2u l=0.15u
+  ad=0p pd=0u as=0p ps=0u
M1143 a_17533_1005.t0 a_15669_1004.t15 a_18197_1005.t0 pshort w=2u l=0.15u
+  ad=0p pd=0u as=0p ps=0u











R0 VPB VPB.n1682 126.832
R1 VPB.n40 VPB.n38 94.117
R2 VPB.n1604 VPB.n1602 94.117
R3 VPB.n1521 VPB.n1519 94.117
R4 VPB.n1438 VPB.n1436 94.117
R5 VPB.n1355 VPB.n1353 94.117
R6 VPB.n1272 VPB.n1270 94.117
R7 VPB.n1189 VPB.n1187 94.117
R8 VPB.n1106 VPB.n1104 94.117
R9 VPB.n1023 VPB.n1021 94.117
R10 VPB.n940 VPB.n938 94.117
R11 VPB.n129 VPB.n127 94.117
R12 VPB.n863 VPB.n861 94.117
R13 VPB.n780 VPB.n778 94.117
R14 VPB.n697 VPB.n695 94.117
R15 VPB.n614 VPB.n612 94.117
R16 VPB.n531 VPB.n529 94.117
R17 VPB.n448 VPB.n446 94.117
R18 VPB.n365 VPB.n363 94.117
R19 VPB.n302 VPB.n300 94.117
R20 VPB.n247 VPB.n245 94.117
R21 VPB.n378 VPB.n377 80.104
R22 VPB.n461 VPB.n460 80.104
R23 VPB.n544 VPB.n543 80.104
R24 VPB.n627 VPB.n626 80.104
R25 VPB.n710 VPB.n709 80.104
R26 VPB.n793 VPB.n792 80.104
R27 VPB.n876 VPB.n875 80.104
R28 VPB.n139 VPB.n138 80.104
R29 VPB.n953 VPB.n952 80.104
R30 VPB.n1036 VPB.n1035 80.104
R31 VPB.n1119 VPB.n1118 80.104
R32 VPB.n1202 VPB.n1201 80.104
R33 VPB.n1285 VPB.n1284 80.104
R34 VPB.n1368 VPB.n1367 80.104
R35 VPB.n1451 VPB.n1450 80.104
R36 VPB.n1534 VPB.n1533 80.104
R37 VPB.n1617 VPB.n1616 80.104
R38 VPB.n50 VPB.n49 80.104
R39 VPB.n210 VPB.n209 76
R40 VPB.n214 VPB.n213 76
R41 VPB.n218 VPB.n217 76
R42 VPB.n222 VPB.n221 76
R43 VPB.n249 VPB.n248 76
R44 VPB.n253 VPB.n252 76
R45 VPB.n257 VPB.n256 76
R46 VPB.n261 VPB.n260 76
R47 VPB.n265 VPB.n264 76
R48 VPB.n269 VPB.n268 76
R49 VPB.n273 VPB.n272 76
R50 VPB.n277 VPB.n276 76
R51 VPB.n304 VPB.n303 76
R52 VPB.n309 VPB.n308 76
R53 VPB.n314 VPB.n313 76
R54 VPB.n321 VPB.n320 76
R55 VPB.n326 VPB.n325 76
R56 VPB.n331 VPB.n330 76
R57 VPB.n336 VPB.n335 76
R58 VPB.n340 VPB.n339 76
R59 VPB.n367 VPB.n366 76
R60 VPB.n371 VPB.n370 76
R61 VPB.n376 VPB.n375 76
R62 VPB.n381 VPB.n380 76
R63 VPB.n388 VPB.n387 76
R64 VPB.n393 VPB.n392 76
R65 VPB.n398 VPB.n397 76
R66 VPB.n405 VPB.n404 76
R67 VPB.n410 VPB.n409 76
R68 VPB.n415 VPB.n414 76
R69 VPB.n419 VPB.n418 76
R70 VPB.n423 VPB.n422 76
R71 VPB.n450 VPB.n449 76
R72 VPB.n454 VPB.n453 76
R73 VPB.n459 VPB.n458 76
R74 VPB.n464 VPB.n463 76
R75 VPB.n471 VPB.n470 76
R76 VPB.n476 VPB.n475 76
R77 VPB.n481 VPB.n480 76
R78 VPB.n488 VPB.n487 76
R79 VPB.n493 VPB.n492 76
R80 VPB.n498 VPB.n497 76
R81 VPB.n502 VPB.n501 76
R82 VPB.n506 VPB.n505 76
R83 VPB.n533 VPB.n532 76
R84 VPB.n537 VPB.n536 76
R85 VPB.n542 VPB.n541 76
R86 VPB.n547 VPB.n546 76
R87 VPB.n554 VPB.n553 76
R88 VPB.n559 VPB.n558 76
R89 VPB.n564 VPB.n563 76
R90 VPB.n571 VPB.n570 76
R91 VPB.n576 VPB.n575 76
R92 VPB.n581 VPB.n580 76
R93 VPB.n585 VPB.n584 76
R94 VPB.n589 VPB.n588 76
R95 VPB.n616 VPB.n615 76
R96 VPB.n620 VPB.n619 76
R97 VPB.n625 VPB.n624 76
R98 VPB.n630 VPB.n629 76
R99 VPB.n637 VPB.n636 76
R100 VPB.n642 VPB.n641 76
R101 VPB.n647 VPB.n646 76
R102 VPB.n654 VPB.n653 76
R103 VPB.n659 VPB.n658 76
R104 VPB.n664 VPB.n663 76
R105 VPB.n668 VPB.n667 76
R106 VPB.n672 VPB.n671 76
R107 VPB.n699 VPB.n698 76
R108 VPB.n703 VPB.n702 76
R109 VPB.n708 VPB.n707 76
R110 VPB.n713 VPB.n712 76
R111 VPB.n720 VPB.n719 76
R112 VPB.n725 VPB.n724 76
R113 VPB.n730 VPB.n729 76
R114 VPB.n737 VPB.n736 76
R115 VPB.n742 VPB.n741 76
R116 VPB.n747 VPB.n746 76
R117 VPB.n751 VPB.n750 76
R118 VPB.n755 VPB.n754 76
R119 VPB.n782 VPB.n781 76
R120 VPB.n786 VPB.n785 76
R121 VPB.n791 VPB.n790 76
R122 VPB.n796 VPB.n795 76
R123 VPB.n803 VPB.n802 76
R124 VPB.n808 VPB.n807 76
R125 VPB.n813 VPB.n812 76
R126 VPB.n820 VPB.n819 76
R127 VPB.n825 VPB.n824 76
R128 VPB.n830 VPB.n829 76
R129 VPB.n834 VPB.n833 76
R130 VPB.n838 VPB.n837 76
R131 VPB.n865 VPB.n864 76
R132 VPB.n869 VPB.n868 76
R133 VPB.n874 VPB.n873 76
R134 VPB.n879 VPB.n878 76
R135 VPB.n886 VPB.n885 76
R136 VPB.n891 VPB.n890 76
R137 VPB.n896 VPB.n895 76
R138 VPB.n903 VPB.n902 76
R139 VPB.n908 VPB.n907 76
R140 VPB.n913 VPB.n912 76
R141 VPB.n917 VPB.n916 76
R142 VPB.n921 VPB.n920 76
R143 VPB.n936 VPB.n933 76
R144 VPB.n942 VPB.n941 76
R145 VPB.n946 VPB.n945 76
R146 VPB.n951 VPB.n950 76
R147 VPB.n956 VPB.n955 76
R148 VPB.n963 VPB.n962 76
R149 VPB.n968 VPB.n967 76
R150 VPB.n973 VPB.n972 76
R151 VPB.n980 VPB.n979 76
R152 VPB.n985 VPB.n984 76
R153 VPB.n990 VPB.n989 76
R154 VPB.n994 VPB.n993 76
R155 VPB.n998 VPB.n997 76
R156 VPB.n1025 VPB.n1024 76
R157 VPB.n1029 VPB.n1028 76
R158 VPB.n1034 VPB.n1033 76
R159 VPB.n1039 VPB.n1038 76
R160 VPB.n1046 VPB.n1045 76
R161 VPB.n1051 VPB.n1050 76
R162 VPB.n1056 VPB.n1055 76
R163 VPB.n1063 VPB.n1062 76
R164 VPB.n1068 VPB.n1067 76
R165 VPB.n1073 VPB.n1072 76
R166 VPB.n1077 VPB.n1076 76
R167 VPB.n1081 VPB.n1080 76
R168 VPB.n1108 VPB.n1107 76
R169 VPB.n1112 VPB.n1111 76
R170 VPB.n1117 VPB.n1116 76
R171 VPB.n1122 VPB.n1121 76
R172 VPB.n1129 VPB.n1128 76
R173 VPB.n1134 VPB.n1133 76
R174 VPB.n1139 VPB.n1138 76
R175 VPB.n1146 VPB.n1145 76
R176 VPB.n1151 VPB.n1150 76
R177 VPB.n1156 VPB.n1155 76
R178 VPB.n1160 VPB.n1159 76
R179 VPB.n1164 VPB.n1163 76
R180 VPB.n1191 VPB.n1190 76
R181 VPB.n1195 VPB.n1194 76
R182 VPB.n1200 VPB.n1199 76
R183 VPB.n1205 VPB.n1204 76
R184 VPB.n1212 VPB.n1211 76
R185 VPB.n1217 VPB.n1216 76
R186 VPB.n1222 VPB.n1221 76
R187 VPB.n1229 VPB.n1228 76
R188 VPB.n1234 VPB.n1233 76
R189 VPB.n1239 VPB.n1238 76
R190 VPB.n1243 VPB.n1242 76
R191 VPB.n1247 VPB.n1246 76
R192 VPB.n1274 VPB.n1273 76
R193 VPB.n1278 VPB.n1277 76
R194 VPB.n1283 VPB.n1282 76
R195 VPB.n1288 VPB.n1287 76
R196 VPB.n1295 VPB.n1294 76
R197 VPB.n1300 VPB.n1299 76
R198 VPB.n1305 VPB.n1304 76
R199 VPB.n1312 VPB.n1311 76
R200 VPB.n1317 VPB.n1316 76
R201 VPB.n1322 VPB.n1321 76
R202 VPB.n1326 VPB.n1325 76
R203 VPB.n1330 VPB.n1329 76
R204 VPB.n1357 VPB.n1356 76
R205 VPB.n1361 VPB.n1360 76
R206 VPB.n1366 VPB.n1365 76
R207 VPB.n1371 VPB.n1370 76
R208 VPB.n1378 VPB.n1377 76
R209 VPB.n1383 VPB.n1382 76
R210 VPB.n1388 VPB.n1387 76
R211 VPB.n1395 VPB.n1394 76
R212 VPB.n1400 VPB.n1399 76
R213 VPB.n1405 VPB.n1404 76
R214 VPB.n1409 VPB.n1408 76
R215 VPB.n1413 VPB.n1412 76
R216 VPB.n1440 VPB.n1439 76
R217 VPB.n1444 VPB.n1443 76
R218 VPB.n1449 VPB.n1448 76
R219 VPB.n1454 VPB.n1453 76
R220 VPB.n1461 VPB.n1460 76
R221 VPB.n1466 VPB.n1465 76
R222 VPB.n1471 VPB.n1470 76
R223 VPB.n1478 VPB.n1477 76
R224 VPB.n1483 VPB.n1482 76
R225 VPB.n1488 VPB.n1487 76
R226 VPB.n1492 VPB.n1491 76
R227 VPB.n1496 VPB.n1495 76
R228 VPB.n1523 VPB.n1522 76
R229 VPB.n1527 VPB.n1526 76
R230 VPB.n1532 VPB.n1531 76
R231 VPB.n1537 VPB.n1536 76
R232 VPB.n1544 VPB.n1543 76
R233 VPB.n1549 VPB.n1548 76
R234 VPB.n1554 VPB.n1553 76
R235 VPB.n1561 VPB.n1560 76
R236 VPB.n1566 VPB.n1565 76
R237 VPB.n1571 VPB.n1570 76
R238 VPB.n1575 VPB.n1574 76
R239 VPB.n1579 VPB.n1578 76
R240 VPB.n1606 VPB.n1605 76
R241 VPB.n1610 VPB.n1609 76
R242 VPB.n1615 VPB.n1614 76
R243 VPB.n1620 VPB.n1619 76
R244 VPB.n1627 VPB.n1626 76
R245 VPB.n1632 VPB.n1631 76
R246 VPB.n1637 VPB.n1636 76
R247 VPB.n1644 VPB.n1643 76
R248 VPB.n1649 VPB.n1648 76
R249 VPB.n1654 VPB.n1653 76
R250 VPB.n1658 VPB.n1657 76
R251 VPB.n1662 VPB.n1661 76
R252 VPB.n1675 VPB.n1674 76
R253 VPB.n407 VPB.n406 75.654
R254 VPB.n490 VPB.n489 75.654
R255 VPB.n573 VPB.n572 75.654
R256 VPB.n656 VPB.n655 75.654
R257 VPB.n739 VPB.n738 75.654
R258 VPB.n822 VPB.n821 75.654
R259 VPB.n905 VPB.n904 75.654
R260 VPB.n161 VPB.n160 75.654
R261 VPB.n982 VPB.n981 75.654
R262 VPB.n1065 VPB.n1064 75.654
R263 VPB.n1148 VPB.n1147 75.654
R264 VPB.n1231 VPB.n1230 75.654
R265 VPB.n1314 VPB.n1313 75.654
R266 VPB.n1397 VPB.n1396 75.654
R267 VPB.n1480 VPB.n1479 75.654
R268 VPB.n1563 VPB.n1562 75.654
R269 VPB.n1646 VPB.n1645 75.654
R270 VPB.n72 VPB.n71 75.654
R271 VPB.n22 VPB.n21 61.764
R272 VPB.n1586 VPB.n1585 61.764
R273 VPB.n1503 VPB.n1502 61.764
R274 VPB.n1420 VPB.n1419 61.764
R275 VPB.n1337 VPB.n1336 61.764
R276 VPB.n1254 VPB.n1253 61.764
R277 VPB.n1171 VPB.n1170 61.764
R278 VPB.n1088 VPB.n1087 61.764
R279 VPB.n1005 VPB.n1004 61.764
R280 VPB.n88 VPB.n87 61.764
R281 VPB.n111 VPB.n110 61.764
R282 VPB.n845 VPB.n844 61.764
R283 VPB.n762 VPB.n761 61.764
R284 VPB.n679 VPB.n678 61.764
R285 VPB.n596 VPB.n595 61.764
R286 VPB.n513 VPB.n512 61.764
R287 VPB.n430 VPB.n429 61.764
R288 VPB.n347 VPB.n346 61.764
R289 VPB.n284 VPB.n283 61.764
R290 VPB.n229 VPB.n228 61.764
R291 VPB.n332 VPB.t68 55.465
R292 VPB.n305 VPB.t18 55.465
R293 VPB.n78 VPB.t93 55.106
R294 VPB.n1650 VPB.t110 55.106
R295 VPB.n1567 VPB.t97 55.106
R296 VPB.n1484 VPB.t12 55.106
R297 VPB.n1401 VPB.t27 55.106
R298 VPB.n1318 VPB.t24 55.106
R299 VPB.n1235 VPB.t92 55.106
R300 VPB.n1152 VPB.t17 55.106
R301 VPB.n1069 VPB.t67 55.106
R302 VPB.n986 VPB.t14 55.106
R303 VPB.n167 VPB.t100 55.106
R304 VPB.n909 VPB.t28 55.106
R305 VPB.n826 VPB.t94 55.106
R306 VPB.n743 VPB.t106 55.106
R307 VPB.n660 VPB.t3 55.106
R308 VPB.n577 VPB.t35 55.106
R309 VPB.n494 VPB.t64 55.106
R310 VPB.n411 VPB.t99 55.106
R311 VPB.n45 VPB.t21 55.106
R312 VPB.n1611 VPB.t108 55.106
R313 VPB.n1528 VPB.t102 55.106
R314 VPB.n1445 VPB.t83 55.106
R315 VPB.n1362 VPB.t15 55.106
R316 VPB.n1279 VPB.t101 55.106
R317 VPB.n1196 VPB.t8 55.106
R318 VPB.n1113 VPB.t104 55.106
R319 VPB.n1030 VPB.t65 55.106
R320 VPB.n947 VPB.t72 55.106
R321 VPB.n134 VPB.t6 55.106
R322 VPB.n870 VPB.t23 55.106
R323 VPB.n787 VPB.t103 55.106
R324 VPB.n704 VPB.t10 55.106
R325 VPB.n621 VPB.t34 55.106
R326 VPB.n538 VPB.t73 55.106
R327 VPB.n455 VPB.t96 55.106
R328 VPB.n372 VPB.t5 55.106
R329 VPB.n311 VPB.n310 48.952
R330 VPB.n385 VPB.n384 48.952
R331 VPB.n468 VPB.n467 48.952
R332 VPB.n551 VPB.n550 48.952
R333 VPB.n634 VPB.n633 48.952
R334 VPB.n717 VPB.n716 48.952
R335 VPB.n800 VPB.n799 48.952
R336 VPB.n883 VPB.n882 48.952
R337 VPB.n143 VPB.n142 48.952
R338 VPB.n960 VPB.n959 48.952
R339 VPB.n1043 VPB.n1042 48.952
R340 VPB.n1126 VPB.n1125 48.952
R341 VPB.n1209 VPB.n1208 48.952
R342 VPB.n1292 VPB.n1291 48.952
R343 VPB.n1375 VPB.n1374 48.952
R344 VPB.n1458 VPB.n1457 48.952
R345 VPB.n1541 VPB.n1540 48.952
R346 VPB.n1624 VPB.n1623 48.952
R347 VPB.n54 VPB.n53 48.952
R348 VPB.n328 VPB.n327 44.502
R349 VPB.n402 VPB.n401 44.502
R350 VPB.n485 VPB.n484 44.502
R351 VPB.n568 VPB.n567 44.502
R352 VPB.n651 VPB.n650 44.502
R353 VPB.n734 VPB.n733 44.502
R354 VPB.n817 VPB.n816 44.502
R355 VPB.n900 VPB.n899 44.502
R356 VPB.n157 VPB.n156 44.502
R357 VPB.n977 VPB.n976 44.502
R358 VPB.n1060 VPB.n1059 44.502
R359 VPB.n1143 VPB.n1142 44.502
R360 VPB.n1226 VPB.n1225 44.502
R361 VPB.n1309 VPB.n1308 44.502
R362 VPB.n1392 VPB.n1391 44.502
R363 VPB.n1475 VPB.n1474 44.502
R364 VPB.n1558 VPB.n1557 44.502
R365 VPB.n1641 VPB.n1640 44.502
R366 VPB.n68 VPB.n67 44.502
R367 VPB.n316 VPB.n315 41.183
R368 VPB.n66 VPB.n14 40.824
R369 VPB.n57 VPB.n15 40.824
R370 VPB.n1639 VPB.n1638 40.824
R371 VPB.n1622 VPB.n1621 40.824
R372 VPB.n1556 VPB.n1555 40.824
R373 VPB.n1539 VPB.n1538 40.824
R374 VPB.n1473 VPB.n1472 40.824
R375 VPB.n1456 VPB.n1455 40.824
R376 VPB.n1390 VPB.n1389 40.824
R377 VPB.n1373 VPB.n1372 40.824
R378 VPB.n1307 VPB.n1306 40.824
R379 VPB.n1290 VPB.n1289 40.824
R380 VPB.n1224 VPB.n1223 40.824
R381 VPB.n1207 VPB.n1206 40.824
R382 VPB.n1141 VPB.n1140 40.824
R383 VPB.n1124 VPB.n1123 40.824
R384 VPB.n1058 VPB.n1057 40.824
R385 VPB.n1041 VPB.n1040 40.824
R386 VPB.n975 VPB.n974 40.824
R387 VPB.n958 VPB.n957 40.824
R388 VPB.n155 VPB.n103 40.824
R389 VPB.n146 VPB.n104 40.824
R390 VPB.n898 VPB.n897 40.824
R391 VPB.n881 VPB.n880 40.824
R392 VPB.n815 VPB.n814 40.824
R393 VPB.n798 VPB.n797 40.824
R394 VPB.n732 VPB.n731 40.824
R395 VPB.n715 VPB.n714 40.824
R396 VPB.n649 VPB.n648 40.824
R397 VPB.n632 VPB.n631 40.824
R398 VPB.n566 VPB.n565 40.824
R399 VPB.n549 VPB.n548 40.824
R400 VPB.n483 VPB.n482 40.824
R401 VPB.n466 VPB.n465 40.824
R402 VPB.n400 VPB.n399 40.824
R403 VPB.n383 VPB.n382 40.824
R404 VPB.n205 VPB.n204 35.118
R405 VPB.n1679 VPB.n1675 20.452
R406 VPB.n194 VPB.n191 20.452
R407 VPB.n318 VPB.n317 17.801
R408 VPB.n390 VPB.n389 17.801
R409 VPB.n473 VPB.n472 17.801
R410 VPB.n556 VPB.n555 17.801
R411 VPB.n639 VPB.n638 17.801
R412 VPB.n722 VPB.n721 17.801
R413 VPB.n805 VPB.n804 17.801
R414 VPB.n888 VPB.n887 17.801
R415 VPB.n148 VPB.n147 17.801
R416 VPB.n965 VPB.n964 17.801
R417 VPB.n1048 VPB.n1047 17.801
R418 VPB.n1131 VPB.n1130 17.801
R419 VPB.n1214 VPB.n1213 17.801
R420 VPB.n1297 VPB.n1296 17.801
R421 VPB.n1380 VPB.n1379 17.801
R422 VPB.n1463 VPB.n1462 17.801
R423 VPB.n1546 VPB.n1545 17.801
R424 VPB.n1629 VPB.n1628 17.801
R425 VPB.n59 VPB.n58 17.801
R426 VPB.n14 VPB.t88 14.282
R427 VPB.n14 VPB.t95 14.282
R428 VPB.n15 VPB.t26 14.282
R429 VPB.n15 VPB.t80 14.282
R430 VPB.n1638 VPB.t59 14.282
R431 VPB.n1638 VPB.t29 14.282
R432 VPB.n1621 VPB.t109 14.282
R433 VPB.n1621 VPB.t60 14.282
R434 VPB.n1555 VPB.t39 14.282
R435 VPB.n1555 VPB.t13 14.282
R436 VPB.n1538 VPB.t107 14.282
R437 VPB.n1538 VPB.t38 14.282
R438 VPB.n1472 VPB.t62 14.282
R439 VPB.n1472 VPB.t11 14.282
R440 VPB.n1455 VPB.t81 14.282
R441 VPB.n1455 VPB.t63 14.282
R442 VPB.n1389 VPB.t79 14.282
R443 VPB.n1389 VPB.t49 14.282
R444 VPB.n1372 VPB.t66 14.282
R445 VPB.n1372 VPB.t77 14.282
R446 VPB.n1306 VPB.t37 14.282
R447 VPB.n1306 VPB.t30 14.282
R448 VPB.n1289 VPB.t25 14.282
R449 VPB.n1289 VPB.t42 14.282
R450 VPB.n1223 VPB.t75 14.282
R451 VPB.n1223 VPB.t91 14.282
R452 VPB.n1206 VPB.t71 14.282
R453 VPB.n1206 VPB.t76 14.282
R454 VPB.n1140 VPB.t56 14.282
R455 VPB.n1140 VPB.t16 14.282
R456 VPB.n1123 VPB.t1 14.282
R457 VPB.n1123 VPB.t55 14.282
R458 VPB.n1057 VPB.t45 14.282
R459 VPB.n1057 VPB.t19 14.282
R460 VPB.n1040 VPB.t31 14.282
R461 VPB.n1040 VPB.t44 14.282
R462 VPB.n974 VPB.t58 14.282
R463 VPB.n974 VPB.t51 14.282
R464 VPB.n957 VPB.t86 14.282
R465 VPB.n957 VPB.t52 14.282
R466 VPB.n103 VPB.t87 14.282
R467 VPB.n103 VPB.t0 14.282
R468 VPB.n104 VPB.t7 14.282
R469 VPB.n104 VPB.t85 14.282
R470 VPB.n897 VPB.t41 14.282
R471 VPB.n897 VPB.t50 14.282
R472 VPB.n880 VPB.t32 14.282
R473 VPB.n880 VPB.t40 14.282
R474 VPB.n814 VPB.t74 14.282
R475 VPB.n814 VPB.t90 14.282
R476 VPB.n797 VPB.t20 14.282
R477 VPB.n797 VPB.t89 14.282
R478 VPB.n731 VPB.t57 14.282
R479 VPB.n731 VPB.t69 14.282
R480 VPB.n714 VPB.t36 14.282
R481 VPB.n714 VPB.t61 14.282
R482 VPB.n648 VPB.t46 14.282
R483 VPB.n648 VPB.t70 14.282
R484 VPB.n631 VPB.t9 14.282
R485 VPB.n631 VPB.t43 14.282
R486 VPB.n565 VPB.t54 14.282
R487 VPB.n565 VPB.t33 14.282
R488 VPB.n548 VPB.t82 14.282
R489 VPB.n548 VPB.t53 14.282
R490 VPB.n482 VPB.t84 14.282
R491 VPB.n482 VPB.t22 14.282
R492 VPB.n465 VPB.t111 14.282
R493 VPB.n465 VPB.t78 14.282
R494 VPB.n399 VPB.t47 14.282
R495 VPB.n399 VPB.t4 14.282
R496 VPB.n382 VPB.t2 14.282
R497 VPB.n382 VPB.t48 14.282
R498 VPB.n315 VPB.t98 14.282
R499 VPB.n315 VPB.t105 14.282
R500 VPB.n194 VPB.n193 13.653
R501 VPB.n193 VPB.n192 13.653
R502 VPB.n203 VPB.n202 13.653
R503 VPB.n202 VPB.n201 13.653
R504 VPB.n200 VPB.n199 13.653
R505 VPB.n199 VPB.n198 13.653
R506 VPB.n197 VPB.n196 13.653
R507 VPB.n196 VPB.n195 13.653
R508 VPB.n209 VPB.n208 13.653
R509 VPB.n208 VPB.n207 13.653
R510 VPB.n213 VPB.n212 13.653
R511 VPB.n212 VPB.n211 13.653
R512 VPB.n217 VPB.n216 13.653
R513 VPB.n216 VPB.n215 13.653
R514 VPB.n221 VPB.n220 13.653
R515 VPB.n220 VPB.n219 13.653
R516 VPB.n248 VPB.n247 13.653
R517 VPB.n247 VPB.n246 13.653
R518 VPB.n252 VPB.n251 13.653
R519 VPB.n251 VPB.n250 13.653
R520 VPB.n256 VPB.n255 13.653
R521 VPB.n255 VPB.n254 13.653
R522 VPB.n260 VPB.n259 13.653
R523 VPB.n259 VPB.n258 13.653
R524 VPB.n264 VPB.n263 13.653
R525 VPB.n263 VPB.n262 13.653
R526 VPB.n268 VPB.n267 13.653
R527 VPB.n267 VPB.n266 13.653
R528 VPB.n272 VPB.n271 13.653
R529 VPB.n271 VPB.n270 13.653
R530 VPB.n276 VPB.n275 13.653
R531 VPB.n275 VPB.n274 13.653
R532 VPB.n303 VPB.n302 13.653
R533 VPB.n302 VPB.n301 13.653
R534 VPB.n308 VPB.n307 13.653
R535 VPB.n307 VPB.n306 13.653
R536 VPB.n313 VPB.n312 13.653
R537 VPB.n312 VPB.n311 13.653
R538 VPB.n320 VPB.n319 13.653
R539 VPB.n319 VPB.n318 13.653
R540 VPB.n325 VPB.n324 13.653
R541 VPB.n324 VPB.n323 13.653
R542 VPB.n330 VPB.n329 13.653
R543 VPB.n329 VPB.n328 13.653
R544 VPB.n335 VPB.n334 13.653
R545 VPB.n334 VPB.n333 13.653
R546 VPB.n339 VPB.n338 13.653
R547 VPB.n338 VPB.n337 13.653
R548 VPB.n366 VPB.n365 13.653
R549 VPB.n365 VPB.n364 13.653
R550 VPB.n370 VPB.n369 13.653
R551 VPB.n369 VPB.n368 13.653
R552 VPB.n375 VPB.n374 13.653
R553 VPB.n374 VPB.n373 13.653
R554 VPB.n380 VPB.n379 13.653
R555 VPB.n379 VPB.n378 13.653
R556 VPB.n387 VPB.n386 13.653
R557 VPB.n386 VPB.n385 13.653
R558 VPB.n392 VPB.n391 13.653
R559 VPB.n391 VPB.n390 13.653
R560 VPB.n397 VPB.n396 13.653
R561 VPB.n396 VPB.n395 13.653
R562 VPB.n404 VPB.n403 13.653
R563 VPB.n403 VPB.n402 13.653
R564 VPB.n409 VPB.n408 13.653
R565 VPB.n408 VPB.n407 13.653
R566 VPB.n414 VPB.n413 13.653
R567 VPB.n413 VPB.n412 13.653
R568 VPB.n418 VPB.n417 13.653
R569 VPB.n417 VPB.n416 13.653
R570 VPB.n422 VPB.n421 13.653
R571 VPB.n421 VPB.n420 13.653
R572 VPB.n449 VPB.n448 13.653
R573 VPB.n448 VPB.n447 13.653
R574 VPB.n453 VPB.n452 13.653
R575 VPB.n452 VPB.n451 13.653
R576 VPB.n458 VPB.n457 13.653
R577 VPB.n457 VPB.n456 13.653
R578 VPB.n463 VPB.n462 13.653
R579 VPB.n462 VPB.n461 13.653
R580 VPB.n470 VPB.n469 13.653
R581 VPB.n469 VPB.n468 13.653
R582 VPB.n475 VPB.n474 13.653
R583 VPB.n474 VPB.n473 13.653
R584 VPB.n480 VPB.n479 13.653
R585 VPB.n479 VPB.n478 13.653
R586 VPB.n487 VPB.n486 13.653
R587 VPB.n486 VPB.n485 13.653
R588 VPB.n492 VPB.n491 13.653
R589 VPB.n491 VPB.n490 13.653
R590 VPB.n497 VPB.n496 13.653
R591 VPB.n496 VPB.n495 13.653
R592 VPB.n501 VPB.n500 13.653
R593 VPB.n500 VPB.n499 13.653
R594 VPB.n505 VPB.n504 13.653
R595 VPB.n504 VPB.n503 13.653
R596 VPB.n532 VPB.n531 13.653
R597 VPB.n531 VPB.n530 13.653
R598 VPB.n536 VPB.n535 13.653
R599 VPB.n535 VPB.n534 13.653
R600 VPB.n541 VPB.n540 13.653