* SPICE3 file created from TMRDFFSNQX1.ext - technology: sky130A

.subckt TMRDFFSNQX1 Q D CLK SN VPB VNB
M1000 VPB.t65 CLK a_5227_383.t5 pshort w=2u l=0.15u
+  ad=0p pd=0u as=0p ps=0u
M1001 a_15533_1005.t7 a_3599_383.t7 a_15044_181.t6 pshort w=2u l=0.15u
+  ad=0p pd=0u as=0p ps=0u
M1002 VNB D a_112_73.t0 nshort w=-1.605u l=1.765u
+  ad=4.9019p pd=41.07u as=0p ps=0u
M1003 a_3599_383.t4 SN VPB.t74 pshort w=2u l=0.15u
+  ad=0p pd=0u as=0p ps=0u
M1004 VNB a_343_383.t11 a_3368_73.t0 nshort w=-1.605u l=1.765u
+  ad=0p pd=0u as=0p ps=0u
M1005 VNB a_9985_1004.t8 a_11487_75.t0 nshort w=-1.605u l=1.765u
+  ad=0p pd=0u as=0p ps=0u
M1006 VPB.t60 CLK a_11033_943.t4 pshort w=2u l=0.15u
+  ad=0p pd=0u as=0p ps=0u
M1007 VPB.t13 a_8357_1004.t5 a_8483_383.t1 pshort w=2u l=0.15u
+  ad=0p pd=0u as=0p ps=0u
M1008 a_5227_383.t4 CLK VPB.t64 pshort w=2u l=0.15u
+  ad=0p pd=0u as=0p ps=0u
M1009 a_14869_1005.t5 a_3599_383.t8 a_15533_1005.t5 pshort w=2u l=0.15u
+  ad=0p pd=0u as=0p ps=0u
M1010 VPB.t52 D a_217_1004.t3 pshort w=2u l=0.15u
+  ad=0p pd=0u as=0p ps=0u
M1011 VPB.t88 a_1265_943.t5 a_1905_1004.t6 pshort w=2u l=0.15u
+  ad=0p pd=0u as=0p ps=0u
M1012 VPB.t53 D a_5101_1004.t4 pshort w=2u l=0.15u
+  ad=0p pd=0u as=0p ps=0u
M1013 a_9985_1004.t4 a_10111_383.t7 VPB.t17 pshort w=2u l=0.15u
+  ad=0p pd=0u as=0p ps=0u
M1014 VPB.t26 a_5101_1004.t5 a_6789_1004.t1 pshort w=2u l=0.15u
+  ad=0p pd=0u as=0p ps=0u
M1015 a_15533_1005.t1 a_8483_383.t7 a_15044_181.t3 pshort w=2u l=0.15u
+  ad=0p pd=0u as=0p ps=0u
M1016 a_6789_1004.t4 a_6149_943.t6 VPB.t37 pshort w=2u l=0.15u
+  ad=0p pd=0u as=0p ps=0u
M1017 VPB.t85 a_11033_943.t6 a_11673_1004.t5 pshort w=2u l=0.15u
+  ad=0p pd=0u as=0p ps=0u
M1018 a_3599_383.t6 a_1265_943.t6 VPB.t92 pshort w=2u l=0.15u
+  ad=0p pd=0u as=0p ps=0u
M1019 a_13241_1004.t3 a_10111_383.t9 VPB.t15 pshort w=2u l=0.15u
+  ad=0p pd=0u as=0p ps=0u
M1020 VNB D a_9880_73.t0 nshort w=-1.605u l=1.765u
+  ad=0p pd=0u as=0p ps=0u
M1021 a_1905_1004.t1 a_217_1004.t6 VPB.t29 pshort w=2u l=0.15u
+  ad=0p pd=0u as=0p ps=0u
M1022 VPB.t7 a_11673_1004.t7 a_11033_943.t1 pshort w=2u l=0.15u
+  ad=0p pd=0u as=0p ps=0u
M1023 a_14869_1005.t0 a_13367_383.t7 a_15533_1005.t2 pshort w=2u l=0.15u
+  ad=0p pd=0u as=0p ps=0u
M1024 VPB.t82 a_343_383.t7 a_217_1004.t4 pshort w=2u l=0.15u
+  ad=0p pd=0u as=0p ps=0u
M1025 VPB.t47 a_5227_383.t7 a_5101_1004.t1 pshort w=2u l=0.15u
+  ad=0p pd=0u as=0p ps=0u
M1026 a_11673_1004.t4 a_11033_943.t7 VPB.t5 pshort w=2u l=0.15u
+  ad=0p pd=0u as=0p ps=0u
M1027 VPB.t23 a_217_1004.t7 a_343_383.t1 pshort w=2u l=0.15u
+  ad=0p pd=0u as=0p ps=0u
M1028 VPB.t0 a_15044_181.t7 a_16835_182.t1 pshort w=2u l=0.15u
+  ad=0p pd=0u as=0p ps=0u
M1029 VPB.t56 a_13241_1004.t6 a_13367_383.t3 pshort w=2u l=0.15u
+  ad=0p pd=0u as=0p ps=0u
M1030 a_3473_1004.t4 a_3599_383.t10 VPB.t84 pshort w=2u l=0.15u
+  ad=0p pd=0u as=0p ps=0u
M1031 a_10111_383.t3 CLK VPB.t59 pshort w=2u l=0.15u
+  ad=0p pd=0u as=0p ps=0u
M1032 VNB a_217_1004.t10 a_757_75.t0 nshort w=-1.605u l=1.765u
+  ad=0p pd=0u as=0p ps=0u
M1033 a_5227_383.t3 a_6149_943.t7 VPB.t40 pshort w=2u l=0.15u
+  ad=0p pd=0u as=0p ps=0u
M1034 VPB.t28 a_11033_943.t9 a_10111_383.t6 pshort w=2u l=0.15u
+  ad=0p pd=0u as=0p ps=0u
M1035 a_13241_1004.t1 a_13367_383.t8 VPB.t48 pshort w=2u l=0.15u
+  ad=0p pd=0u as=0p ps=0u
M1036 VPB.t45 a_5227_383.t9 a_8357_1004.t4 pshort w=2u l=0.15u
+  ad=0p pd=0u as=0p ps=0u
M1037 VNB a_1905_1004.t7 a_2702_73.t0 nshort w=-1.605u l=1.765u
+  ad=0p pd=0u as=0p ps=0u
M1038 a_6149_943.t3 CLK VPB.t63 pshort w=2u l=0.15u
+  ad=0p pd=0u as=0p ps=0u
M1039 a_14869_1005.t7 a_13367_383.t10 VPB.t95 pshort w=2u l=0.15u
+  ad=0p pd=0u as=0p ps=0u
M1040 VNB a_10111_383.t10 a_13136_73.t0 nshort w=-1.605u l=1.765u
+  ad=0p pd=0u as=0p ps=0u
M1041 VPB.t41 a_6149_943.t8 a_8483_383.t4 pshort w=2u l=0.15u
+  ad=0p pd=0u as=0p ps=0u
M1042 a_13367_383.t2 a_13241_1004.t7 VPB.t43 pshort w=2u l=0.15u
+  ad=0p pd=0u as=0p ps=0u
M1043 VNB a_5227_383.t8 a_8252_73.t0 nshort w=-1.605u l=1.765u
+  ad=0p pd=0u as=0p ps=0u
M1044 VNB a_8357_1004.t7 a_8897_75.t0 nshort w=-1.605u l=1.765u
+  ad=0p pd=0u as=0p ps=0u
M1045 VPB.t21 a_8483_383.t8 a_14869_1005.t2 pshort w=2u l=0.15u
+  ad=0p pd=0u as=0p ps=0u
M1046 VPB.t66 CLK a_343_383.t3 pshort w=2u l=0.15u
+  ad=0p pd=0u as=0p ps=0u
M1047 a_3473_1004.t1 a_343_383.t9 VPB.t31 pshort w=2u l=0.15u
+  ad=0p pd=0u as=0p ps=0u
M1048 VPB.t20 a_1905_1004.t8 a_1265_943.t0 pshort w=2u l=0.15u
+  ad=0p pd=0u as=0p ps=0u
M1049 a_8483_383.t6 SN VPB.t71 pshort w=2u l=0.15u
+  ad=0p pd=0u as=0p ps=0u
M1050 VPB.t77 SN a_13367_383.t1 pshort w=2u l=0.15u
+  ad=0p pd=0u as=0p ps=0u
M1051 a_10111_383.t0 a_9985_1004.t5 VPB.t3 pshort w=2u l=0.15u
+  ad=0p pd=0u as=0p ps=0u
M1052 a_15533_1005.t3 a_13367_383.t11 a_14869_1005.t3 pshort w=2u l=0.15u
+  ad=0p pd=0u as=0p ps=0u
M1053 VPB.t8 a_10111_383.t11 a_9985_1004.t3 pshort w=2u l=0.15u
+  ad=0p pd=0u as=0p ps=0u
M1054 VNB a_13367_383.t9 a_14764_73.t0 nshort w=-1.605u l=1.765u
+  ad=0p pd=0u as=0p ps=0u
M1055 VPB.t69 SN a_11673_1004.t3 pshort w=2u l=0.15u
+  ad=0p pd=0u as=0p ps=0u
M1056 a_6149_943.t1 a_6789_1004.t7 VPB.t35 pshort w=2u l=0.15u
+  ad=0p pd=0u as=0p ps=0u
M1057 VPB.t30 a_3473_1004.t6 a_3599_383.t2 pshort w=2u l=0.15u
+  ad=0p pd=0u as=0p ps=0u
M1058 VPB.t19 a_1265_943.t8 a_3599_383.t0 pshort w=2u l=0.15u
+  ad=0p pd=0u as=0p ps=0u
M1059 VNB a_217_1004.t5 a_1719_75.t0 nshort w=-1.605u l=1.765u
+  ad=0p pd=0u as=0p ps=0u
M1060 VPB.t87 a_1265_943.t9 a_343_383.t6 pshort w=2u l=0.15u
+  ad=0p pd=0u as=0p ps=0u
M1061 a_8483_383.t0 a_8357_1004.t6 VPB.t11 pshort w=2u l=0.15u
+  ad=0p pd=0u as=0p ps=0u
M1062 VPB.t32 a_11033_943.t10 a_13367_383.t6 pshort w=2u l=0.15u
+  ad=0p pd=0u as=0p ps=0u
M1063 VPB.t93 a_5101_1004.t8 a_5227_383.t6 pshort w=2u l=0.15u
+  ad=0p pd=0u as=0p ps=0u
M1064 a_8483_383.t3 a_6149_943.t9 VPB.t38 pshort w=2u l=0.15u
+  ad=0p pd=0u as=0p ps=0u
M1065 a_15533_1005.t4 a_3599_383.t13 a_14869_1005.t4 pshort w=2u l=0.15u
+  ad=0p pd=0u as=0p ps=0u
M1066 a_217_1004.t2 D VPB.t54 pshort w=2u l=0.15u
+  ad=0p pd=0u as=0p ps=0u
M1067 VPB.t50 D a_9985_1004.t1 pshort w=2u l=0.15u
+  ad=0p pd=0u as=0p ps=0u
M1068 a_1905_1004.t5 a_1265_943.t10 VPB.t91 pshort w=2u l=0.15u
+  ad=0p pd=0u as=0p ps=0u
M1069 a_6789_1004.t0 a_5101_1004.t9 VPB.t24 pshort w=2u l=0.15u
+  ad=0p pd=0u as=0p ps=0u
M1070 VPB.t2 a_9985_1004.t7 a_11673_1004.t1 pshort w=2u l=0.15u
+  ad=0p pd=0u as=0p ps=0u
M1071 a_15044_181.t2 a_8483_383.t10 a_15533_1005.t0 pshort w=2u l=0.15u
+  ad=0p pd=0u as=0p ps=0u
M1072 VPB.t73 SN a_3599_383.t3 pshort w=2u l=0.15u
+  ad=0p pd=0u as=0p ps=0u
M1073 VPB.t76 SN a_6789_1004.t6 pshort w=2u l=0.15u
+  ad=0p pd=0u as=0p ps=0u
M1074 VNB a_6789_1004.t8 a_7586_73.t0 nshort w=-1.605u l=1.765u
+  ad=0p pd=0u as=0p ps=0u
M1075 VNB a_3599_383.t12 a_16096_73.t0 nshort w=-1.605u l=1.765u
+  ad=0p pd=0u as=0p ps=0u
M1076 VNB D a_4996_73.t0 nshort w=-1.605u l=1.765u
+  ad=0p pd=0u as=0p ps=0u
M1077 a_11033_943.t0 a_11673_1004.t8 VPB.t4 pshort w=2u l=0.15u
+  ad=0p pd=0u as=0p ps=0u
M1078 VNB a_13241_1004.t5 a_13781_75.t0 nshort w=-1.605u l=1.765u
+  ad=0p pd=0u as=0p ps=0u
M1079 a_1905_1004.t3 SN VPB.t72 pshort w=2u l=0.15u
+  ad=0p pd=0u as=0p ps=0u
M1080 a_5101_1004.t0 a_5227_383.t10 VPB.t46 pshort w=2u l=0.15u
+  ad=0p pd=0u as=0p ps=0u
M1081 a_217_1004.t1 a_343_383.t10 VPB.t49 pshort w=2u l=0.15u
+  ad=0p pd=0u as=0p ps=0u
M1082 VNB a_5101_1004.t6 a_5641_75.t0 nshort w=-1.605u l=1.765u
+  ad=0p pd=0u as=0p ps=0u
M1083 a_6789_1004.t5 SN VPB.t75 pshort w=2u l=0.15u
+  ad=0p pd=0u as=0p ps=0u
M1084 a_16835_182.t0 a_15044_181.t9 VPB.t6 pshort w=2u l=0.15u
+  ad=0p pd=0u as=0p ps=0u
M1085 a_15044_181.t4 a_3599_383.t14 a_15533_1005.t6 pshort w=2u l=0.15u
+  ad=0p pd=0u as=0p ps=0u
M1086 VPB.t25 a_9985_1004.t9 a_10111_383.t1 pshort w=2u l=0.15u
+  ad=0p pd=0u as=0p ps=0u
M1087 VPB.t10 a_8483_383.t12 a_8357_1004.t0 pshort w=2u l=0.15u
+  ad=0p pd=0u as=0p ps=0u
M1088 a_343_383.t0 a_217_1004.t8 VPB.t86 pshort w=2u l=0.15u
+  ad=0p pd=0u as=0p ps=0u
M1089 VPB.t36 a_6149_943.t11 a_6789_1004.t3 pshort w=2u l=0.15u
+  ad=0p pd=0u as=0p ps=0u
M1090 VPB.t9 a_10111_383.t12 a_13241_1004.t2 pshort w=2u l=0.15u
+  ad=0p pd=0u as=0p ps=0u
M1091 a_10111_383.t5 a_11033_943.t11 VPB.t12 pshort w=2u l=0.15u
+  ad=0p pd=0u as=0p ps=0u
M1092 a_8357_1004.t3 a_5227_383.t11 VPB.t44 pshort w=2u l=0.15u
+  ad=0p pd=0u as=0p ps=0u
M1093 VPB.t14 a_217_1004.t9 a_1905_1004.t0 pshort w=2u l=0.15u
+  ad=0p pd=0u as=0p ps=0u
M1094 VPB.t34 a_6789_1004.t9 a_6149_943.t0 pshort w=2u l=0.15u
+  ad=0p pd=0u as=0p ps=0u
M1095 a_11033_943.t3 CLK VPB.t57 pshort w=2u l=0.15u
+  ad=0p pd=0u as=0p ps=0u
M1096 a_5101_1004.t3 D VPB.t51 pshort w=2u l=0.15u
+  ad=0p pd=0u as=0p ps=0u
M1097 a_343_383.t2 CLK VPB.t68 pshort w=2u l=0.15u
+  ad=0p pd=0u as=0p ps=0u
M1098 a_14869_1005.t1 a_8483_383.t13 VPB.t27 pshort w=2u l=0.15u
+  ad=0p pd=0u as=0p ps=0u
M1099 VNB a_5101_1004.t7 a_6603_75.t0 nshort w=-1.605u l=1.765u
+  ad=0p pd=0u as=0p ps=0u
M1100 a_9985_1004.t0 D VPB.t55 pshort w=2u l=0.15u
+  ad=0p pd=0u as=0p ps=0u
M1101 a_13367_383.t0 SN VPB.t78 pshort w=2u l=0.15u
+  ad=0p pd=0u as=0p ps=0u
M1102 a_1265_943.t4 a_1905_1004.t9 VPB.t89 pshort w=2u l=0.15u
+  ad=0p pd=0u as=0p ps=0u
M1103 VPB.t90 a_3599_383.t15 a_3473_1004.t3 pshort w=2u l=0.15u
+  ad=0p pd=0u as=0p ps=0u
M1104 VNB a_3473_1004.t5 a_4013_75.t0 nshort w=-1.605u l=1.765u
+  ad=0p pd=0u as=0p ps=0u
M1105 VPB.t58 CLK a_10111_383.t2 pshort w=2u l=0.15u
+  ad=0p pd=0u as=0p ps=0u
M1106 a_11673_1004.t2 SN VPB.t70 pshort w=2u l=0.15u
+  ad=0p pd=0u as=0p ps=0u
M1107 VPB.t67 CLK a_1265_943.t3 pshort w=2u l=0.15u
+  ad=0p pd=0u as=0p ps=0u
M1108 VPB.t39 a_6149_943.t12 a_5227_383.t2 pshort w=2u l=0.15u
+  ad=0p pd=0u as=0p ps=0u
M1109 VPB.t81 a_13367_383.t14 a_13241_1004.t4 pshort w=2u l=0.15u
+  ad=0p pd=0u as=0p ps=0u
M1110 VNB a_11673_1004.t9 a_12470_73.t0 nshort w=-1.605u l=1.765u
+  ad=0p pd=0u as=0p ps=0u
M1111 a_8357_1004.t2 a_8483_383.t14 VPB.t42 pshort w=2u l=0.15u
+  ad=0p pd=0u as=0p ps=0u
M1112 a_3599_383.t5 a_3473_1004.t7 VPB.t83 pshort w=2u l=0.15u
+  ad=0p pd=0u as=0p ps=0u
M1113 VPB.t62 CLK a_6149_943.t2 pshort w=2u l=0.15u
+  ad=0p pd=0u as=0p ps=0u
M1114 VPB.t94 a_13367_383.t15 a_14869_1005.t6 pshort w=2u l=0.15u
+  ad=0p pd=0u as=0p ps=0u
M1115 VNB a_9985_1004.t6 a_10525_75.t0 nshort w=-1.605u l=1.765u
+  ad=0p pd=0u as=0p ps=0u
M1116 VNB a_13367_383.t13 a_15430_73.t0 nshort w=-1.605u l=1.765u
+  ad=0p pd=0u as=0p ps=0u
M1117 a_343_383.t5 a_1265_943.t13 VPB.t22 pshort w=2u l=0.15u
+  ad=0p pd=0u as=0p ps=0u
M1118 VPB.t33 a_343_383.t12 a_3473_1004.t0 pshort w=2u l=0.15u
+  ad=0p pd=0u as=0p ps=0u
M1119 a_5227_383.t0 a_5101_1004.t10 VPB.t16 pshort w=2u l=0.15u
+  ad=0p pd=0u as=0p ps=0u
M1120 VPB.t79 SN a_8483_383.t5 pshort w=2u l=0.15u
+  ad=0p pd=0u as=0p ps=0u
M1121 a_13367_383.t5 a_11033_943.t13 VPB.t18 pshort w=2u l=0.15u
+  ad=0p pd=0u as=0p ps=0u
M1122 a_1265_943.t2 CLK VPB.t61 pshort w=2u l=0.15u
+  ad=0p pd=0u as=0p ps=0u
M1123 VPB.t80 SN a_1905_1004.t2 pshort w=2u l=0.15u
+  ad=0p pd=0u as=0p ps=0u
M1124 a_11673_1004.t0 a_9985_1004.t10 VPB.t1 pshort w=2u l=0.15u
+  ad=0p pd=0u as=0p ps=0u






R0 a_6149_943.n6 a_6149_943.t6 454.685
R1 a_6149_943.n8 a_6149_943.t7 454.685
R2 a_6149_943.n4 a_6149_943.t9 454.685
R3 a_6149_943.n6 a_6149_943.t11 428.979
R4 a_6149_943.n8 a_6149_943.t12 428.979
R5 a_6149_943.n4 a_6149_943.t8 428.979
R6 a_6149_943.n7 a_6149_943.t5 248.006
R7 a_6149_943.n9 a_6149_943.t13 248.006
R8 a_6149_943.n5 a_6149_943.t10 248.006
R9 a_6149_943.n14 a_6149_943.n12 220.639
R10 a_6149_943.n12 a_6149_943.n3 135.994
R11 a_6149_943.n7 a_6149_943.n6 81.941
R12 a_6149_943.n9 a_6149_943.n8 81.941
R13 a_6149_943.n5 a_6149_943.n4 81.941
R14 a_6149_943.n11 a_6149_943.n5 81.396
R15 a_6149_943.n10 a_6149_943.n9 79.491
R16 a_6149_943.n3 a_6149_943.n2 76.002
R17 a_6149_943.n10 a_6149_943.n7 76
R18 a_6149_943.n12 a_6149_943.n11 76
R19 a_6149_943.n14 a_6149_943.n13 30
R20 a_6149_943.n15 a_6149_943.n0 24.383
R21 a_6149_943.n15 a_6149_943.n14 23.684
R22 a_6149_943.n1 a_6149_943.t2 14.282
R23 a_6149_943.n1 a_6149_943.t3 14.282
R24 a_6149_943.n2 a_6149_943.t0 14.282
R25 a_6149_943.n2 a_6149_943.t1 14.282
R26 a_6149_943.n3 a_6149_943.n1 12.85
R27 a_6149_943.n11 a_6149_943.n10 2.947
R28 a_6884_182.n13 a_6884_182.n6 82.852
R29 a_6884_182.t0 a_6884_182.n1 46.91
R30 a_6884_182.n10 a_6884_182.n8 34.805
R31 a_6884_182.n10 a_6884_182.n9 32.622
R32 a_6884_182.t0 a_6884_182.n13 32.417
R33 a_6884_182.n6 a_6884_182.n5 27.2
R34 a_6884_182.n4 a_6884_182.n3 23.498
R35 a_6884_182.n6 a_6884_182.n4 22.4
R36 a_6884_182.n12 a_6884_182.n10 19.017
R37 a_6884_182.n1 a_6884_182.n0 17.006
R38 a_6884_182.t0 a_6884_182.n2 8.137
R39 a_6884_182.n8 a_6884_182.n7 7.5
R40 a_6884_182.n12 a_6884_182.n11 7.5
R41 a_6884_182.n13 a_6884_182.n12 1.435
R42 a_6789_1004.n5 a_6789_1004.t9 480.392
R43 a_6789_1004.n5 a_6789_1004.t7 403.272
R44 a_6789_1004.n7 a_6789_1004.n4 233.952
R45 a_6789_1004.n6 a_6789_1004.t8 213.869
R46 a_6789_1004.n6 a_6789_1004.n5 161.6
R47 a_6789_1004.n7 a_6789_1004.n6 153.315
R48 a_6789_1004.n9 a_6789_1004.n7 150.014
R49 a_6789_1004.n3 a_6789_1004.n2 79.232
R50 a_6789_1004.n4 a_6789_1004.n3 63.152
R51 a_6789_1004.n4 a_6789_1004.n0 16.08
R52 a_6789_1004.n3 a_6789_1004.n1 16.08
R53 a_6789_1004.n9 a_6789_1004.n8 15.218
R54 a_6789_1004.n0 a_6789_1004.t3 14.282
R55 a_6789_1004.n0 a_6789_1004.t4 14.282
R56 a_6789_1004.n1 a_6789_1004.t6 14.282
R57 a_6789_1004.n1 a_6789_1004.t5 14.282
R58 a_6789_1004.n2 a_6789_1004.t1 14.282
R59 a_6789_1004.n2 a_6789_1004.t0 14.282
R60 a_6789_1004.n10 a_6789_1004.n9 12.014
R61 a_5227_383.n6 a_5227_383.t9 480.392
R62 a_5227_383.n8 a_5227_383.t7 472.359
R63 a_5227_383.n6 a_5227_383.t11 403.272
R64 a_5227_383.n8 a_5227_383.t10 384.527
R65 a_5227_383.n7 a_5227_383.t8 320.08
R66 a_5227_383.n9 a_5227_383.t12 277.772
R67 a_5227_383.n13 a_5227_383.n11 249.364
R68 a_5227_383.n11 a_5227_383.n5 127.401
R69 a_5227_383.n10 a_5227_383.n7 83.304
R70 a_5227_383.n10 a_5227_383.n9 80.032
R71 a_5227_383.n4 a_5227_383.n3 79.232
R72 a_5227_383.n11 a_5227_383.n10 76
R73 a_5227_383.n9 a_5227_383.n8 67.001
R74 a_5227_383.n5 a_5227_383.n4 63.152
R75 a_5227_383.n7 a_5227_383.n6 55.388
R76 a_5227_383.n13 a_5227_383.n12 30
R77 a_5227_383.n14 a_5227_383.n0 24.383
R78 a_5227_383.n14 a_5227_383.n13 23.684
R79 a_5227_383.n5 a_5227_383.n1 16.08
R80 a_5227_383.n4 a_5227_383.n2 16.08
R81 a_5227_383.n1 a_5227_383.t2 14.282
R82 a_5227_383.n1 a_5227_383.t3 14.282
R83 a_5227_383.n2 a_5227_383.t5 14.282
R84 a_5227_383.n2 a_5227_383.t4 14.282
R85 a_5227_383.n3 a_5227_383.t6 14.282
R86 a_5227_383.n3 a_5227_383.t0 14.282
R87 VPB VPB.n1549 126.832
R88 VPB.n49 VPB.n47 94.117
R89 VPB.n1485 VPB.n1483 94.117
R90 VPB.n1402 VPB.n1400 94.117
R91 VPB.n1339 VPB.n1337 94.117
R92 VPB.n1276 VPB.n1274 94.117
R93 VPB.n1193 VPB.n1191 94.117
R94 VPB.n1130 VPB.n1128 94.117
R95 VPB.n1047 VPB.n1045 94.117
R96 VPB.n964 VPB.n962 94.117
R97 VPB.n901 VPB.n899 94.117
R98 VPB.n134 VPB.n132 94.117
R99 VPB.n819 VPB.n817 94.117
R100 VPB.n756 VPB.n754 94.117
R101 VPB.n673 VPB.n671 94.117
R102 VPB.n590 VPB.n588 94.117
R103 VPB.n527 VPB.n525 94.117
R104 VPB.n464 VPB.n462 94.117
R105 VPB.n381 VPB.n379 94.117
R106 VPB.n318 VPB.n316 94.117
R107 VPB.n263 VPB.n261 94.117
R108 VPB.n208 VPB.n206 91.036
R109 VPB.n394 VPB.n393 80.104
R110 VPB.n603 VPB.n602 80.104
R111 VPB.n686 VPB.n685 80.104
R112 VPB.n832 VPB.n831 80.104
R113 VPB.n977 VPB.n976 80.104
R114 VPB.n1060 VPB.n1059 80.104
R115 VPB.n1206 VPB.n1205 80.104
R116 VPB.n1415 VPB.n1414 80.104
R117 VPB.n1498 VPB.n1497 80.104
R118 VPB.n169 VPB.n163 76.136
R119 VPB.n169 VPB.n168 76
R120 VPB.n173 VPB.n172 76
R121 VPB.n179 VPB.n178 76
R122 VPB.n183 VPB.n182 76
R123 VPB.n210 VPB.n209 76
R124 VPB.n214 VPB.n213 76
R125 VPB.n218 VPB.n217 76
R126 VPB.n222 VPB.n221 76
R127 VPB.n226 VPB.n225 76
R128 VPB.n230 VPB.n229 76
R129 VPB.n234 VPB.n233 76
R130 VPB.n238 VPB.n237 76
R131 VPB.n265 VPB.n264 76
R132 VPB.n269 VPB.n268 76
R133 VPB.n273 VPB.n272 76
R134 VPB.n277 VPB.n276 76
R135 VPB.n281 VPB.n280 76
R136 VPB.n285 VPB.n284 76
R137 VPB.n289 VPB.n288 76
R138 VPB.n293 VPB.n292 76
R139 VPB.n320 VPB.n319 76
R140 VPB.n325 VPB.n324 76
R141 VPB.n330 VPB.n329 76
R142 VPB.n337 VPB.n336 76
R143 VPB.n342 VPB.n341 76
R144 VPB.n347 VPB.n346 76
R145 VPB.n352 VPB.n351 76
R146 VPB.n356 VPB.n355 76
R147 VPB.n383 VPB.n382 76
R148 VPB.n387 VPB.n386 76
R149 VPB.n392 VPB.n391 76
R150 VPB.n397 VPB.n396 76
R151 VPB.n404 VPB.n403 76
R152 VPB.n409 VPB.n408 76
R153 VPB.n414 VPB.n413 76
R154 VPB.n421 VPB.n420 76
R155 VPB.n426 VPB.n425 76
R156 VPB.n431 VPB.n430 76
R157 VPB.n435 VPB.n434 76
R158 VPB.n439 VPB.n438 76
R159 VPB.n466 VPB.n465 76
R160 VPB.n471 VPB.n470 76
R161 VPB.n476 VPB.n475 76
R162 VPB.n483 VPB.n482 76
R163 VPB.n488 VPB.n487 76
R164 VPB.n493 VPB.n492 76
R165 VPB.n498 VPB.n497 76
R166 VPB.n502 VPB.n501 76
R167 VPB.n529 VPB.n528 76
R168 VPB.n534 VPB.n533 76
R169 VPB.n539 VPB.n538 76
R170 VPB.n546 VPB.n545 76
R171 VPB.n551 VPB.n550 76
R172 VPB.n556 VPB.n555 76
R173 VPB.n561 VPB.n560 76
R174 VPB.n565 VPB.n564 76
R175 VPB.n592 VPB.n591 76
R176 VPB.n596 VPB.n595 76
R177 VPB.n601 VPB.n600 76
R178 VPB.n606 VPB.n605 76
R179 VPB.n613 VPB.n612 76
R180 VPB.n618 VPB.n617 76
R181 VPB.n623 VPB.n622 76
R182 VPB.n630 VPB.n629 76
R183 VPB.n635 VPB.n634 76
R184 VPB.n640 VPB.n639 76
R185 VPB.n644 VPB.n643 76
R186 VPB.n648 VPB.n647 76
R187 VPB.n675 VPB.n674 76
R188 VPB.n679 VPB.n678 76
R189 VPB.n684 VPB.n683 76
R190 VPB.n689 VPB.n688 76
R191 VPB.n696 VPB.n695 76
R192 VPB.n701 VPB.n700 76
R193 VPB.n706 VPB.n705 76
R194 VPB.n713 VPB.n712 76
R195 VPB.n718 VPB.n717 76
R196 VPB.n723 VPB.n722 76
R197 VPB.n727 VPB.n726 76
R198 VPB.n731 VPB.n730 76
R199 VPB.n758 VPB.n757 76
R200 VPB.n763 VPB.n762 76
R201 VPB.n768 VPB.n767 76
R202 VPB.n775 VPB.n774 76
R203 VPB.n780 VPB.n779 76
R204 VPB.n785 VPB.n784 76
R205 VPB.n790 VPB.n789 76
R206 VPB.n794 VPB.n793 76
R207 VPB.n821 VPB.n820 76
R208 VPB.n825 VPB.n824 76
R209 VPB.n830 VPB.n829 76
R210 VPB.n835 VPB.n834 76
R211 VPB.n850 VPB.n846 76
R212 VPB.n857 VPB.n856 76
R213 VPB.n862 VPB.n861 76
R214 VPB.n867 VPB.n866 76
R215 VPB.n872 VPB.n871 76
R216 VPB.n876 VPB.n875 76
R217 VPB.n903 VPB.n902 76
R218 VPB.n908 VPB.n907 76
R219 VPB.n913 VPB.n912 76
R220 VPB.n920 VPB.n919 76
R221 VPB.n925 VPB.n924 76
R222 VPB.n930 VPB.n929 76
R223 VPB.n935 VPB.n934 76
R224 VPB.n939 VPB.n938 76
R225 VPB.n966 VPB.n965 76
R226 VPB.n970 VPB.n969 76
R227 VPB.n975 VPB.n974 76
R228 VPB.n980 VPB.n979 76
R229 VPB.n987 VPB.n986 76
R230 VPB.n992 VPB.n991 76
R231 VPB.n997 VPB.n996 76
R232 VPB.n1004 VPB.n1003 76
R233 VPB.n1009 VPB.n1008 76
R234 VPB.n1014 VPB.n1013 76
R235 VPB.n1018 VPB.n1017 76
R236 VPB.n1022 VPB.n1021 76
R237 VPB.n1049 VPB.n1048 76
R238 VPB.n1053 VPB.n1052 76
R239 VPB.n1058 VPB.n1057 76
R240 VPB.n1063 VPB.n1062 76
R241 VPB.n1070 VPB.n1069 76
R242 VPB.n1075 VPB.n1074 76
R243 VPB.n1080 VPB.n1079 76
R244 VPB.n1087 VPB.n1086 76
R245 VPB.n1092 VPB.n1091 76
R246 VPB.n1097 VPB.n1096 76
R247 VPB.n1101 VPB.n1100 76
R248 VPB.n1105 VPB.n1104 76
R249 VPB.n1132 VPB.n1131 76
R250 VPB.n1137 VPB.n1136 76
R251 VPB.n1142 VPB.n1141 76
R252 VPB.n1149 VPB.n1148 76
R253 VPB.n1154 VPB.n1153 76
R254 VPB.n1159 VPB.n1158 76
R255 VPB.n1164 VPB.n1163 76
R256 VPB.n1168 VPB.n1167 76
R257 VPB.n1195 VPB.n1194 76
R258 VPB.n1199 VPB.n1198 76
R259 VPB.n1204 VPB.n1203 76
R260 VPB.n1209 VPB.n1208 76
R261 VPB.n1216 VPB.n1215 76
R262 VPB.n1221 VPB.n1220 76
R263 VPB.n1226 VPB.n1225 76
R264 VPB.n1233 VPB.n1232 76
R265 VPB.n1238 VPB.n1237 76
R266 VPB.n1243 VPB.n1242 76
R267 VPB.n1247 VPB.n1246 76
R268 VPB.n1251 VPB.n1250 76
R269 VPB.n1278 VPB.n1277 76
R270 VPB.n1283 VPB.n1282 76
R271 VPB.n1288 VPB.n1287 76
R272 VPB.n1295 VPB.n1294 76
R273 VPB.n1300 VPB.n1299 76
R274 VPB.n1305 VPB.n1304 76
R275 VPB.n1310 VPB.n1309 76
R276 VPB.n1314 VPB.n1313 76
R277 VPB.n1341 VPB.n1340 76
R278 VPB.n1346 VPB.n1345 76
R279 VPB.n1351 VPB.n1350 76
R280 VPB.n1358 VPB.n1357 76
R281 VPB.n1363 VPB.n1362 76
R282 VPB.n1368 VPB.n1367 76
R283 VPB.n1373 VPB.n1372 76
R284 VPB.n1377 VPB.n1376 76
R285 VPB.n1404 VPB.n1403 76
R286 VPB.n1408 VPB.n1407 76
R287 VPB.n1413 VPB.n1412 76
R288 VPB.n1418 VPB.n1417 76
R289 VPB.n1425 VPB.n1424 76
R290 VPB.n1430 VPB.n1429 76
R291 VPB.n1435 VPB.n1434 76
R292 VPB.n1442 VPB.n1441 76
R293 VPB.n1447 VPB.n1446 76
R294 VPB.n1452 VPB.n1451 76
R295 VPB.n1456 VPB.n1455 76
R296 VPB.n1460 VPB.n1459 76
R297 VPB.n1487 VPB.n1486 76
R298 VPB.n1491 VPB.n1490 76
R299 VPB.n1496 VPB.n1495 76
R300 VPB.n1501 VPB.n1500 76
R301 VPB.n1508 VPB.n1507 76
R302 VPB.n1513 VPB.n1512 76
R303 VPB.n1518 VPB.n1517 76
R304 VPB.n1525 VPB.n1524 76
R305 VPB.n1530 VPB.n1529 76
R306 VPB.n1542 VPB.n1541 76
R307 VPB.n423 VPB.n422 75.654
R308 VPB.n632 VPB.n631 75.654
R309 VPB.n715 VPB.n714 75.654
R310 VPB.n118 VPB.n117 75.654
R311 VPB.n1006 VPB.n1005 75.654
R312 VPB.n1089 VPB.n1088 75.654
R313 VPB.n1235 VPB.n1234 75.654
R314 VPB.n1444 VPB.n1443 75.654
R315 VPB.n1527 VPB.n1526 75.654
R316 VPB.n176 VPB.n175 68.979
R317 VPB.n166 VPB.n165 64.528
R318 VPB.n21 VPB.n20 61.764
R319 VPB.n1467 VPB.n1466 61.764
R320 VPB.n1384 VPB.n1383 61.764
R321 VPB.n1321 VPB.n1320 61.764
R322 VPB.n1258 VPB.n1257 61.764
R323 VPB.n1175 VPB.n1174 61.764
R324 VPB.n1112 VPB.n1111 61.764
R325 VPB.n1029 VPB.n1028 61.764
R326 VPB.n946 VPB.n945 61.764
R327 VPB.n883 VPB.n882 61.764
R328 VPB.n82 VPB.n81 61.764
R329 VPB.n801 VPB.n800 61.764
R330 VPB.n738 VPB.n737 61.764
R331 VPB.n655 VPB.n654 61.764
R332 VPB.n572 VPB.n571 61.764
R333 VPB.n509 VPB.n508 61.764
R334 VPB.n446 VPB.n445 61.764
R335 VPB.n363 VPB.n362 61.764
R336 VPB.n300 VPB.n299 61.764
R337 VPB.n245 VPB.n244 61.764
R338 VPB.n190 VPB.n189 61.764
R339 VPB.n348 VPB.t95 55.465
R340 VPB.n321 VPB.t21 55.465
R341 VPB.n72 VPB.t54 55.106
R342 VPB.n39 VPB.t86 55.106
R343 VPB.n1448 VPB.t29 55.106
R344 VPB.n1369 VPB.t89 55.106
R345 VPB.n1306 VPB.t31 55.106
R346 VPB.n1239 VPB.t83 55.106
R347 VPB.n1160 VPB.t51 55.106
R348 VPB.n1093 VPB.t16 55.106
R349 VPB.n1010 VPB.t24 55.106
R350 VPB.n931 VPB.t35 55.106
R351 VPB.n868 VPB.t44 55.106
R352 VPB.n124 VPB.t11 55.106
R353 VPB.n786 VPB.t55 55.106
R354 VPB.n719 VPB.t3 55.106
R355 VPB.n636 VPB.t1 55.106
R356 VPB.n557 VPB.t4 55.106
R357 VPB.n494 VPB.t15 55.106
R358 VPB.n427 VPB.t43 55.106
R359 VPB.n174 VPB.t6 55.106
R360 VPB.n164 VPB.t0 55.106
R361 VPB.n54 VPB.t82 55.106
R362 VPB.n1492 VPB.t87 55.106
R363 VPB.n1409 VPB.t88 55.106
R364 VPB.n1342 VPB.t67 55.106
R365 VPB.n1279 VPB.t90 55.106
R366 VPB.n1200 VPB.t19 55.106
R367 VPB.n1133 VPB.t47 55.106
R368 VPB.n1054 VPB.t39 55.106
R369 VPB.n971 VPB.t36 55.106
R370 VPB.n904 VPB.t62 55.106
R371 VPB.n139 VPB.t10 55.106
R372 VPB.n826 VPB.t41 55.106
R373 VPB.n759 VPB.t8 55.106
R374 VPB.n680 VPB.t28 55.106
R375 VPB.n597 VPB.t85 55.106
R376 VPB.n530 VPB.t60 55.106
R377 VPB.n467 VPB.t81 55.106
R378 VPB.n388 VPB.t32 55.106
R379 VPB.n327 VPB.n326 48.952
R380 VPB.n401 VPB.n400 48.952
R381 VPB.n473 VPB.n472 48.952
R382 VPB.n536 VPB.n535 48.952
R383 VPB.n610 VPB.n609 48.952
R384 VPB.n693 VPB.n692 48.952
R385 VPB.n765 VPB.n764 48.952
R386 VPB.n100 VPB.n99 48.952
R387 VPB.n848 VPB.n847 48.952
R388 VPB.n910 VPB.n909 48.952
R389 VPB.n984 VPB.n983 48.952
R390 VPB.n1067 VPB.n1066 48.952
R391 VPB.n1139 VPB.n1138 48.952
R392 VPB.n1213 VPB.n1212 48.952
R393 VPB.n1285 VPB.n1284 48.952
R394 VPB.n1348 VPB.n1347 48.952
R395 VPB.n1422 VPB.n1421 48.952
R396 VPB.n1505 VPB.n1504 48.952
R397 VPB.n56 VPB.n55 48.952
R398 VPB.n344 VPB.n343 44.502
R399 VPB.n418 VPB.n417 44.502
R400 VPB.n490 VPB.n489 44.502
R401 VPB.n553 VPB.n552 44.502
R402 VPB.n627 VPB.n626 44.502
R403 VPB.n710 VPB.n709 44.502
R404 VPB.n782 VPB.n781 44.502
R405 VPB.n114 VPB.n113 44.502
R406 VPB.n864 VPB.n863 44.502
R407 VPB.n927 VPB.n926 44.502
R408 VPB.n1001 VPB.n1000 44.502
R409 VPB.n1084 VPB.n1083 44.502
R410 VPB.n1156 VPB.n1155 44.502
R411 VPB.n1230 VPB.n1229 44.502
R412 VPB.n1302 VPB.n1301 44.502
R413 VPB.n1365 VPB.n1364 44.502
R414 VPB.n1439 VPB.n1438 44.502
R415 VPB.n1522 VPB.n1521 44.502
R416 VPB.n69 VPB.n68 44.502
R417 VPB.n332 VPB.n331 41.183
R418 VPB.n63 VPB.n14 40.824
R419 VPB.n1520 VPB.n1519 40.824
R420 VPB.n1503 VPB.n1502 40.824
R421 VPB.n1437 VPB.n1436 40.824
R422 VPB.n1420 VPB.n1419 40.824
R423 VPB.n1353 VPB.n1352 40.824
R424 VPB.n1290 VPB.n1289 40.824
R425 VPB.n1228 VPB.n1227 40.824
R426 VPB.n1211 VPB.n1210 40.824
R427 VPB.n1144 VPB.n1143 40.824
R428 VPB.n1082 VPB.n1081 40.824
R429 VPB.n1065 VPB.n1064 40.824
R430 VPB.n999 VPB.n998 40.824
R431 VPB.n982 VPB.n981 40.824
R432 VPB.n915 VPB.n914 40.824
R433 VPB.n852 VPB.n851 40.824
R434 VPB.n112 VPB.n97 40.824
R435 VPB.n103 VPB.n98 40.824
R436 VPB.n770 VPB.n769 40.824
R437 VPB.n708 VPB.n707 40.824
R438 VPB.n691 VPB.n690 40.824
R439 VPB.n625 VPB.n624 40.824
R440 VPB.n608 VPB.n607 40.824
R441 VPB.n541 VPB.n540 40.824
R442 VPB.n478 VPB.n477 40.824
R443 VPB.n416 VPB.n415 40.824
R444 VPB.n399 VPB.n398 40.824
R445 VPB.n1546 VPB.n1542 20.452
R446 VPB.n163 VPB.n160 20.452
R447 VPB.n334 VPB.n333 17.801
R448 VPB.n406 VPB.n405 17.801
R449 VPB.n480 VPB.n479 17.801
R450 VPB.n543 VPB.n542 17.801
R451 VPB.n615 VPB.n614 17.801
R452 VPB.n698 VPB.n697 17.801
R453 VPB.n772 VPB.n771 17.801
R454 VPB.n105 VPB.n104 17.801
R455 VPB.n854 VPB.n853 17.801
R456 VPB.n917 VPB.n916 17.801
R457 VPB.n989 VPB.n988 17.801
R458 VPB.n1072 VPB.n1071 17.801
R459 VPB.n1146 VPB.n1145 17.801
R460 VPB.n1218 VPB.n1217 17.801
R461 VPB.n1292 VPB.n1291 17.801
R462 VPB.n1355 VPB.n1354 17.801
R463 VPB.n1427 VPB.n1426 17.801
R464 VPB.n1510 VPB.n1509 17.801
R465 VPB.n60 VPB.n59 17.801
R466 VPB.n14 VPB.t49 14.282
R467 VPB.n14 VPB.t52 14.282
R468 VPB.n1519 VPB.t68 14.282
R469 VPB.n1519 VPB.t23 14.282
R470 VPB.n1502 VPB.t22 14.282
R471 VPB.n1502 VPB.t66 14.282
R472 VPB.n1436 VPB.t72 14.282
R473 VPB.n1436 VPB.t14 14.282
R474 VPB.n1419 VPB.t91 14.282
R475 VPB.n1419 VPB.t80 14.282
R476 VPB.n1352 VPB.t61 14.282
R477 VPB.n1352 VPB.t20 14.282
R478 VPB.n1289 VPB.t84 14.282
R479 VPB.n1289 VPB.t33 14.282
R480 VPB.n1227 VPB.t74 14.282
R481 VPB.n1227 VPB.t30 14.282
R482 VPB.n1210 VPB.t92 14.282
R483 VPB.n1210 VPB.t73 14.282
R484 VPB.n1143 VPB.t46 14.282
R485 VPB.n1143 VPB.t53 14.282
R486 VPB.n1081 VPB.t64 14.282
R487 VPB.n1081 VPB.t93 14.282
R488 VPB.n1064 VPB.t40 14.282
R489 VPB.n1064 VPB.t65 14.282
R490 VPB.n998 VPB.t75 14.282
R491 VPB.n998 VPB.t26 14.282
R492 VPB.n981 VPB.t37 14.282
R493 VPB.n981 VPB.t76 14.282
R494 VPB.n914 VPB.t63 14.282
R495 VPB.n914 VPB.t34 14.282
R496 VPB.n851 VPB.t42 14.282
R497 VPB.n851 VPB.t45 14.282
R498 VPB.n97 VPB.t71 14.282
R499 VPB.n97 VPB.t13 14.282
R500 VPB.n98 VPB.t38 14.282
R501 VPB.n98 VPB.t79 14.282
R502 VPB.n769 VPB.t17 14.282
R503 VPB.n769 VPB.t50 14.282
R504 VPB.n707 VPB.t59 14.282
R505 VPB.n707 VPB.t25 14.282
R506 VPB.n690 VPB.t12 14.282
R507 VPB.n690 VPB.t58 14.282
R508 VPB.n624 VPB.t70 14.282
R509 VPB.n624 VPB.t2 14.282
R510 VPB.n607 VPB.t5 14.282
R511 VPB.n607 VPB.t69 14.282
R512 VPB.n540 VPB.t57 14.282
R513 VPB.n540 VPB.t7 14.282
R514 VPB.n477 VPB.t48 14.282
R515 VPB.n477 VPB.t9 14.282
R516 VPB.n415 VPB.t78 14.282
R517 VPB.n415 VPB.t56 14.282
R518 VPB.n398 VPB.t18 14.282
R519 VPB.n398 VPB.t77 14.282
R520 VPB.n331 VPB.t27 14.282
R521 VPB.n331 VPB.t94 14.282
R522 VPB.n163 VPB.n162 13.653
R523 VPB.n162 VPB.n161 13.653
R524 VPB.n168 VPB.n167 13.653
R525 VPB.n167 VPB.n166 13.653
R526 VPB.n172 VPB.n171 13.653
R527 VPB.n171 VPB.n170 13.653
R528 VPB.n178 VPB.n177 13.653
R529 VPB.n177 VPB.n176 13.653
R530 VPB.n182 VPB.n181 13.653
R531 VPB.n181 VPB.n180 13.653
R532 VPB.n209 VPB.n208 13.653
R533 VPB.n208 VPB.n207 13.653
R534 VPB.n213 VPB.n212 13.653
R535 VPB.n212 VPB.n211 13.653
R536 VPB.n217 VPB.n216 13.653
R537 VPB.n216 VPB.n215 13.653
R538 VPB.n221 VPB.n220 13.653
R539 VPB.n220 VPB.n219 13.653
R540 VPB.n225 VPB.n224 13.653
R541 VPB.n224 VPB.n223 13.653
R542 VPB.n229 VPB.n228 13.653
R543 VPB.n228 VPB.n227 13.653
R544 VPB.n233 VPB.n232 13.653
R545 VPB.n232 VPB.n231 13.653
R546 VPB.n237 VPB.n236 13.653
R547 VPB.n236 VPB.n235 13.653
R548 VPB.n264 VPB.n263 13.653
R549 VPB.n263 VPB.n262 13.653
R550 VPB.n268 VPB.n267 13.653
R551 VPB.n267 VPB.n266 13.653
R552 VPB.n272 VPB.n271 13.653
R553 VPB.n271 VPB.n270 13.653
R554 VPB.n276 VPB.n275 13.653
R555 VPB.n275 VPB.n274 13.653
R556 VPB.n280 VPB.n279 13.653
R557 VPB.n279 VPB.n278 13.653
R558 VPB.n284 VPB.n283 13.653
R559 VPB.n283 VPB.n282 13.653
R560 VPB.n288 VPB.n287 13.653
R561 VPB.n287 VPB.n286 13.653
R562 VPB.n292 VPB.n291 13.653
R563 VPB.n291 VPB.n290 13.653
R564 VPB.n319 VPB.n318 13.653
R565 VPB.n318 VPB.n317 13.653
R566 VPB.n324 VPB.n323 13.653
R567 VPB.n323 VPB.n322 13.653
R568 VPB.n329 VPB.n328 13.653
R569 VPB.n328 VPB.n327 13.653
R570 VPB.n336 VPB.n335 13.653
R571 VPB.n335 VPB.n334 13.653
R572 VPB.n341 VPB.n340 13.653
R573 VPB.n340 VPB.n339 13.653
R574 VPB.n346 VPB.n345 13.653
R575 VPB.n345 VPB.n344 13.653
R576 VPB.n351 VPB.n350 13.653
R577 VPB.n350 VPB.n349 13.653
R578 VPB.n355 VPB.n354 13.653
R579 VPB.n354 VPB.n353 13.653
R580 VPB.n382 VPB.n381 13.653
R581 VPB.n381 VPB.n380 13.653
R582 VPB.n386 VPB.n385 13.653
R583 VPB.n385 VPB.n384 13.653
R584 VPB.n391 VPB.n390 13.653
R585 VPB.n390 VPB.n389 13.653
R586 VPB.n396 VPB.n395 13.653
R587 VPB.n395 VPB.n394 13.653
R588 VPB.n403 VPB.n402 13.653
R589 VPB.n402 VPB.n401 13.653
R590 VPB.n408 VPB.n407 13.653
R591 VPB.n407 VPB.n406 13.653
R592 VPB.n413 VPB.n412 13.653
R593 VPB.n412 VPB.n411 13.653
R594 VPB.n420 VPB.n419 13.653
R595 VPB.n419 VPB.n418 13.653
R596 VPB.n425 VPB.n424 13.653
R597 VPB.n424 VPB.n423 13.653
R598 VPB.n430 VPB.n429 13.653
R599 VPB.n429 VPB.n428 13.653
R600 VPB.n434 VPB.n433 13.653
R601 VPB.n433 VPB.n432 13.653
R602 VPB.n438 VPB.n437 13.653
R603 VPB.n437 VPB.n436 13.653
R604 VPB.n465 VPB.n464 13.653
R605 VPB.n464 VPB.n463 13.653
R606 VPB.n470 VPB.n469 13.653
R607 VPB.n469 VPB.n468 13.653
R608 VPB.n475 VPB.n474 13.653
R609 VPB.n474 VPB.n473 13.653
R610 VPB.n482 VPB.n481 13.653
R611 VPB.n481 VPB.n480 13.653
R612 VPB.n487 VPB.n486 13.653
R613 VPB.n486 VPB.n485 13.653
R614 VPB.n492 VPB.n491 13.653
R615 VPB.n491 VPB.n490 13.653
R616 VPB.n497 VPB.n496 13.653
R617 VPB.n496 VPB.n495 13.653
R618 VPB.n501 VPB.n500 13.653
R619 VPB.n500 VPB.n499 13.653
R620 VPB.n528 VPB.n527 13.653