* BSIMTran Version 0.1.24, Created on 4-26-2002
* Username: qhc
* Command Line: /net/alexis/disk1/qhc/ICM_WA/qhc_s8tsafeg6_dev_178/config/cydir/bin/amd64/bsimtran nlowvt/nmos_bsim4.rf nmos -p -nnlowvt nlowvt_ss_raw.pm3 nlowvt_ss.pm3 
* Working Directory: /net/alexis/disk1/qhc/s8-models/s8x/models.3.5/spice/inverse_benny
* Time: Wed Jul  2 15:17:35 2014
* Rule File:  nlowvt/nmos_bsim4.rf
* Output File:  nlowvt_ss.pm3
* Input Files:
* (1) nlowvt_ss_raw.pm3
*copyright, Cypress Semiconductor, 2007
*BSIM4.V5 NMOS Model

.model nlowvt.0 nmos
*
***MODEL FLAG PARAMETERS
*
+lmin = 8.0e-06   lmax = 0.0001   wmin = 7.0e-06   wmax = 0.0001   
+level      =        54.0                        
+version    =        4.5                         
+binunit    =        2.0                         
+mobmod     =        0.0                         
+capmod     =        2.0                         
+igcmod     =        0.0                         
+igbmod     =        0.0                         
+geomod     =        0.0                         
+diomod     =        1.0                         
+rdsmod     =        0.0                         
+rbodymod   =        1.0                         
+rgatemod   =        0.0                         
+permod     =        1.0                         
+acnqsmod   =        0.0                         
+trnqsmod   =        0.0                         
+fnoimod    =        1.0                         
+tnoimod    =        1.0                         
+tempmod    =        0.0                         
***PROCESS PARAMETERS
+toxe       =        4.299402e-09	
+toxm       =        4.148e-09                   
+dtox       =        0.0                         
+epsrox     =        3.9                         
+xj = 1.5e-07   
+ngate = 1.0e+23   
+ndep = 1.7e+17   
+nsd = 1.0e+20   
+rsh        =        1.0                         
+rshg       =        0.1                         
***BASIC MODEL PARAMETERS
+wint       =        4.852e-08	   
+lint       =        -1.025e-10	   
+vth0 = 0.4177611	
+k1 = 0.47213   
+k2 = -0.0324753   
+k3 = 1.65   
+k3b = 1.6   
+w0 = 1.0e-07   
+dvt0 = 0.07665   
+dvt1 = 0.1252   
+dvt2 = -0.05637   
+dvt0w = 0.0   
+dvt1w = 5300000.0   
+dvt2w = -0.032   
+dsub = 0.56   
+minv = 0.0   
+voffl      =        0.0                         
+lpe0 = 2.3802e-07   
+lpeb = -4.9152e-08   
+vbm = -3.0   
+dvtp0 = 0.0   
+dvtp1 = 0.0   
+phin = 0.0   
+cdsc = 3.8556e-37   
+cdscb = -0.00011484   
+cdscd = 4.7984e-06   
+cit = 1.0e-05   
+voff = -0.11559919	
+nfactor = 1.1501979	   
+eta0 = 0.08   
+etab = -0.07   
+vfb = 0.0   
+u0 = 0.03165736	   
+ua = -1.3012667e-09   
+ub = 2.63804e-18   
+uc = 7.0152e-11   
+ud = 0.0   
+up = 0.0   
+lp = 1.0   
+eu = 1.67   
+vtl = 0.0   
+xn = 0.0   
+vsat = 161140.0   
+a0 = 1.9649815   
+ags = 0.503487   
+a1 = 0.0   
+a2 = 0.38689047   
+b0 = 0.0   
+b1 = 0.0   
+keta = 0.0   
+dwg = -1.33e-08   
+dwb = -1.08e-08   
+pclm = 0.2   
+pdiblc1 = 0.39   
+pdiblc2 = 0.0047977   
+pdiblcb = 0.0   
+drout = 3.4946   
+pscbe1 = 450000000.0   
+pscbe2 = 1.0e-08   
+pvag = 0.0   
+delta = 0.01   
+fprout = 0.0   
+pdits = 1.4427e-15   
+pditsl     =        0.0                         
+pditsd = 0.0   
+lambda     =        0.0                         
+lc         =        0.0                         
***PARAMETERS FOR ASYMMETRIC AND BIAS-DEPENDENT RDS MODEL******
+rdsw = 103.65   
+rsw = 0.0   
+rdw = 0.0   
+rdswmin    =        0.0                         
+rdwmin     =        0.0                         
+rswmin     =        0.0                         
+prwb = 0.0   
+prwg = 0.0   
+wr = 1.0   
***IMPACT IONIZATION CURRENT MODEL PARAMTERS******************
+alpha0 = 8.4345657e-05   
+alpha1 = 0.0   
+beta0 = 17.822982   
***GIDL INDUCED DRAIN LEAKAGE MODEL PARAMETERS*****************
+agidl = 0.0   
+bgidl = 2300000000.0   
+cgidl = 0.5   
+egidl = 0.8   
***GATE DIELECTRIC TUNNELING CURRENT MODEL PARAMETERS**********
+toxref     =        4.148e-09                   
+dlcig = 0.0   
+aigbacc = 1.0   
+bigbacc = 0.0   
+cigbacc = 0.0   
+nigbacc = 1.0   
+aigbinv = 0.35   
+bigbinv = 0.03   
+cigbinv = 0.006   
+eigbinv = 1.1   
+nigbinv = 3.0   
+aigc = 0.43   
+bigc = 0.054   
+cigc = 0.075   
+aigsd = 0.43   
+bigsd = 0.054   
+cigsd = 0.075   
+nigc = 1.0   
+poxedge = 1.0   
+pigcd = 1.0   
+ntox = 1.0   
+vfbsdoff   =        0.0                         
***CHARGE AND CAPACITANCE MODEL PARAMETERS********************
+dlc        =        2.241e-09                   
+dwc        =        4.852e-08                   
+xpart      =        0.0                         
+cgso       =        2.49362848e-10              
+cgdo       =        2.49362848e-10              
+cgbo       =        1.0e-14                     
+cgdl = 2.408e-11   
+cgsl = 2.408e-11   
+clc = 1.0e-07   
+cle = 0.6   
+cf = 1.0e-14   
+ckappas = 0.6   
+vfbcv = -1.0   
+acde = 0.38008   
+moin = 23.81   
+noff = 3.8661   
+voffcv = -0.16994   
***HIGH-SPEED/RF MODEL PARAMETERS******************************
+xrcrg1     =        12.0                        
+xrcrg2     =        1.0                         
+rbpb       =        50.0                        
+rbpd       =        50.0                        
+rbps       =        50.0                        
+rbdb       =        50.0                        
+rbsb       =        50.0                        
+gbmin      =        1.0e-12                     
***FLICKER AND THERMAL NOISE MODEL PARAMETERS******************
+ef         =        1.2                         
+noia       =        9.0e+41                     
+noib       =        1.0e+27                     
+noic       =        800000000000.0              
+em         =        41000000.0                  
+ntnoi      =        1.0                         
+lintnoi    =        -3.0e-07                    
+af         =        1.0                         
+kf         =        0.0                         
+tnoia      =        25000000.0                  
+tnoib      =        9900000.0                   
+rnoia      =        0.912                       
+rnoib      =        0.26                        
***LAYOUT-DEPENDENT PARASITICS MODEL PARAMETERS****************
+xl         =        0.0                         
+xw         =        0.0                         
+dmcg       =        0.0                         
+dmdg       =        0.0                         
+dmcgt      =        0.0                         
+xgw        =        0.0                         
+xgl        =        0.0                         
+ngcon      =        1.0                         
***ASYMMETRIC SOURCE/DRAIN JUNCTION DIODE MODEL PARAMETERS*****
+jss        =        0.00275                     
+jsws       =        6.0e-10                     
+ijthsfwd   =        0.1                         
+ijthsrev   =        0.1                         
+bvs        =        11.9                        
+xjbvs      =        1.0                         
+pbs        =        0.7477                      
+cjs        =        0.0013575861                
+mjs        =        0.42197                     
+pbsws      =        0.1                         
+cjsws      =        3.62566016e-11              
+mjsws      =        0.001                       
+pbswgs     =        0.79644                     
+cjswgs     =        2.01501188e-10              
+mjswgs     =        0.8                         

***TEMPERATURE DEPENDENCE PARAMETERS***************************
+tnom       =        30.0                        
+kt1 = -0.25364   
+kt2 = -0.034423   
+at = 333080.0   
+ute = -1.0777   
+ua1 = 2.6823e-09   
+ub1 = -2.4433e-18   
+uc1 = -1.9223e-11   
+kt1l = 0.0   
+prt = 0.0   
+tvoff = 0.0   
+njs        =        1.2928                      
+tpb        =        0.0012287                   
+tcj        =        0.000792                    
+tpbsw      =        0.0                         
+tcjsw      =        1.0e-05                     
+tpbswg     =        0.0                         
+tcjswg     =        0.0                         
+xtis       =        2.0                         
+tvfbsdoff  =        0.0                         
***DW AND DL PARAMETERS****************************************
+ll         =        0.0                         
+wl         =        0.0                         
+lln        =        1.0                         
+wln        =        1.0                         
+lw         =        0.0                         
+ww         =        0.0                         
+lwn        =        1.0                         
+wwn        =        1.0                         
+lwl        =        0.0                         
+wwl        =        0.0                         
+llc        =        0.0                         
+wlc        =        0.0                         
+lwc        =        0.0                         
+wwc        =        0.0                         
+lwlc       =        0.0                         
+wwlc       =        0.0                         
***STRESS PARAMETERS*******************************************
+saref      =        3.0e-06                     
+sbref      =        3.0e-06                     
+kvth0      =        7.9e-09                     
+lkvth0     =        0.0                         
+wkvth0     =        3.0e-07                     
+pkvth0     =        0.0                         
+llodvth    =        0.0                         
+wlodvth    =        1.0                         
+wlod       =        0.0                         
+stk2       =        0.0                         
+lodk2      =        1.0                         
+lodeta0    =        1.0                         
+ku0        =        -2.7e-08                    
+lku0       =        0.0                         
+wku0       =        0.0                         
+pku0       =        0.0                         
+tku0       =        0.0                         
+llodku0    =        0.0                         
+wlodku0    =        1.0                         
+kvsat      =        0.2                         
+steta0     =        0.0                         
***WELL PROXIMITY EFFECT PARAMETERS****************************
******

.model nlowvt.1 nmos
*
***MODEL FLAG PARAMETERS
*
+lmin = 6.0e-06   lmax = 8.0e-06   wmin = 7.0e-06   wmax = 0.0001   
+level      =        54.0                        
+version    =        4.5                         
+binunit    =        2.0                         
+mobmod     =        0.0                         
+capmod     =        2.0                         
+igcmod     =        0.0                         
+igbmod     =        0.0                         
+geomod     =        0.0                         
+diomod     =        1.0                         
+rdsmod     =        0.0                         
+rbodymod   =        1.0                         
+rgatemod   =        0.0                         
+permod     =        1.0                         
+acnqsmod   =        0.0                         
+trnqsmod   =        0.0                         
+fnoimod    =        1.0                         
+tnoimod    =        1.0                         
+tempmod    =        0.0                         
***PROCESS PARAMETERS
+toxe       =        4.299402e-09	
+toxm       =        4.148e-09                   
+dtox       =        0.0                         
+epsrox     =        3.9                         
+xj = 1.5e-07   
+ngate = 1.0e+23   
+ndep = 1.7e+17   
+nsd = 1.0e+20   
+rsh        =        1.0                         
+rshg       =        0.1                         
***BASIC MODEL PARAMETERS
+wint       =        4.852e-08	   
+lint       =        -1.025e-10	   
+vth0 = 0.4177611	
+k1 = 0.47213   
+k2 = -0.0324753   
+k3 = 1.65   
+k3b = 1.6   
+w0 = 1.0e-07   
+dvt0 = 0.07665   
+dvt1 = 0.1252   
+dvt2 = -0.05637   
+dvt0w = 0.0   
+dvt1w = 5300000.0   
+dvt2w = -0.032   
+dsub = 0.56   
+minv = 0.0   
+voffl      =        0.0                         
+lpe0 = 2.3802e-07   
+lpeb = -4.9152e-08   
+vbm = -3.0   
+dvtp0 = 0.0   
+dvtp1 = 0.0   
+phin = 0.0   
+cdsc = 3.8556e-37   
+cdscb = -0.00011484   
+cdscd = 4.7984e-06   
+cit = 1.0e-05   
+voff = -0.11559919	
+nfactor = 1.1501979	   
+eta0 = 0.08   
+etab = -0.07   
+vfb = 0.0   
+u0 = 0.03165736	   
+ua = -1.3012667e-09   
+ub = 2.63804e-18   
+uc = 7.0152e-11   
+ud = 0.0   
+up = 0.0   
+lp = 1.0   
+eu = 1.67   
+vtl = 0.0   
+xn = 0.0   
+vsat = 161140.0   
+a0 = 1.9649815   
+ags = 0.503487   
+a1 = 0.0   
+a2 = 0.38689047   
+b0 = 0.0   
+b1 = 0.0   
+keta = 0.0   
+dwg = -1.33e-08   
+dwb = -1.08e-08   
+pclm = 0.2   
+pdiblc1 = 0.39   
+pdiblc2 = 0.0047977   
+pdiblcb = 0.0   
+drout = 3.4946   
+pscbe1 = 450000000.0   
+pscbe2 = 1.0e-08   
+pvag = 0.0   
+delta = 0.01   
+fprout = 0.0   
+pdits = 1.4427e-15   
+pditsl     =        0.0                         
+pditsd = 0.0   
+lambda     =        0.0                         
+lc         =        0.0                         
***PARAMETERS FOR ASYMMETRIC AND BIAS-DEPENDENT RDS MODEL******
+rdsw = 103.65   
+rsw = 0.0   
+rdw = 0.0   
+rdswmin    =        0.0                         
+rdwmin     =        0.0                         
+rswmin     =        0.0                         
+prwb = 0.0   
+prwg = 0.0   
+wr = 1.0   
***IMPACT IONIZATION CURRENT MODEL PARAMTERS******************
+alpha0 = 8.4345657e-05   
+alpha1 = 0.0   
+beta0 = 17.822982   
***GIDL INDUCED DRAIN LEAKAGE MODEL PARAMETERS*****************
+agidl = 0.0   
+bgidl = 2300000000.0   
+cgidl = 0.5   
+egidl = 0.8   
***GATE DIELECTRIC TUNNELING CURRENT MODEL PARAMETERS**********
+toxref     =        4.148e-09                   
+dlcig = 0.0   
+aigbacc = 1.0   
+bigbacc = 0.0   
+cigbacc = 0.0   
+nigbacc = 1.0   
+aigbinv = 0.35   
+bigbinv = 0.03   
+cigbinv = 0.006   
+eigbinv = 1.1   
+nigbinv = 3.0   
+aigc = 0.43   
+bigc = 0.054   
+cigc = 0.075   
+aigsd = 0.43   
+bigsd = 0.054   
+cigsd = 0.075   
+nigc = 1.0   
+poxedge = 1.0   
+pigcd = 1.0   
+ntox = 1.0   
+vfbsdoff   =        0.0                         
***CHARGE AND CAPACITANCE MODEL PARAMETERS********************
+dlc        =        2.241e-09                   
+dwc        =        4.852e-08                   
+xpart      =        0.0                         
+cgso       =        2.49362848e-10              
+cgdo       =        2.49362848e-10              
+cgbo       =        1.0e-14                     
+cgdl = 2.408e-11   
+cgsl = 2.408e-11   
+clc = 1.0e-07   
+cle = 0.6   
+cf = 1.0e-14   
+ckappas = 0.6   
+vfbcv = -1.0   
+acde = 0.38008   
+moin = 23.81   
+noff = 3.8661   
+voffcv = -0.16994   
***HIGH-SPEED/RF MODEL PARAMETERS******************************
+xrcrg1     =        12.0                        
+xrcrg2     =        1.0                         
+rbpb       =        50.0                        
+rbpd       =        50.0                        
+rbps       =        50.0                        
+rbdb       =        50.0                        
+rbsb       =        50.0                        
+gbmin      =        1.0e-12                     
***FLICKER AND THERMAL NOISE MODEL PARAMETERS******************
+ef         =        1.2                         
+noia       =        9.0e+41                     
+noib       =        1.0e+27                     
+noic       =        800000000000.0              
+em         =        41000000.0                  
+ntnoi      =        1.0                         
+lintnoi    =        -3.0e-07                    
+af         =        1.0                         
+kf         =        0.0                         
+tnoia      =        25000000.0                  
+tnoib      =        9900000.0                   
+rnoia      =        0.912                       
+rnoib      =        0.26                        
***LAYOUT-DEPENDENT PARASITICS MODEL PARAMETERS****************
+xl         =        0.0                         
+xw         =        0.0                         
+dmcg       =        0.0                         
+dmdg       =        0.0                         
+dmcgt      =        0.0                         
+xgw        =        0.0                         
+xgl        =        0.0                         
+ngcon      =        1.0                         
***ASYMMETRIC SOURCE/DRAIN JUNCTION DIODE MODEL PARAMETERS*****
+jss        =        0.00275                     
+jsws       =        6.0e-10                     
+ijthsfwd   =        0.1                         
+ijthsrev   =        0.1                         
+bvs        =        11.9                        
+xjbvs      =        1.0                         
+pbs        =        0.7477                      
+cjs        =        0.0013575861                
+mjs        =        0.42197                     
+pbsws      =        0.1                         
+cjsws      =        3.62566016e-11              
+mjsws      =        0.001                       
+pbswgs     =        0.79644                     
+cjswgs     =        2.01501188e-10              
+mjswgs     =        0.8                         

***TEMPERATURE DEPENDENCE PARAMETERS***************************
+tnom       =        30.0                        
+kt1 = -0.25364   
+kt2 = -0.034423   
+at = 333080.0   
+ute = -1.0777   
+ua1 = 2.6823e-09   
+ub1 = -2.4433e-18   
+uc1 = -1.9223e-11   
+kt1l = 0.0   
+prt = 0.0   
+tvoff = 0.0   
+njs        =        1.2928                      
+tpb        =        0.0012287                   
+tcj        =        0.000792                    
+tpbsw      =        0.0                         
+tcjsw      =        1.0e-05                     
+tpbswg     =        0.0                         
+tcjswg     =        0.0                         
+xtis       =        2.0                         
+tvfbsdoff  =        0.0                         
***DW AND DL PARAMETERS****************************************
+ll         =        0.0                         
+wl         =        0.0                         
+lln        =        1.0                         
+wln        =        1.0                         
+lw         =        0.0                         
+ww         =        0.0                         
+lwn        =        1.0                         
+wwn        =        1.0                         
+lwl        =        0.0                         
+wwl        =        0.0                         
+llc        =        0.0                         
+wlc        =        0.0                         
+lwc        =        0.0                         
+wwc        =        0.0                         
+lwlc       =        0.0                         
+wwlc       =        0.0                         
***STRESS PARAMETERS*******************************************
+saref      =        3.0e-06                     
+sbref      =        3.0e-06                     
+kvth0      =        7.9e-09                     
+lkvth0     =        0.0                         
+wkvth0     =        3.0e-07                     
+pkvth0     =        0.0                         
+llodvth    =        0.0                         
+wlodvth    =        1.0                         
+wlod       =        0.0                         
+stk2       =        0.0                         
+lodk2      =        1.0                         
+lodeta0    =        1.0                         
+ku0        =        -2.7e-08                    
+lku0       =        0.0                         
+wku0       =        0.0                         
+pku0       =        0.0                         
+tku0       =        0.0                         
+llodku0    =        0.0                         
+wlodku0    =        1.0                         
+kvsat      =        0.2                         
+steta0     =        0.0                         
***WELL PROXIMITY EFFECT PARAMETERS****************************
******

.model nlowvt.2 nmos
*
***MODEL FLAG PARAMETERS
*
+lmin = 4.0e-06   lmax = 6.0e-06   wmin = 7.0e-06   wmax = 0.0001   
+level      =        54.0                        
+version    =        4.5                         
+binunit    =        2.0                         
+mobmod     =        0.0                         
+capmod     =        2.0                         
+igcmod     =        0.0                         
+igbmod     =        0.0                         
+geomod     =        0.0                         
+diomod     =        1.0                         
+rdsmod     =        0.0                         
+rbodymod   =        1.0                         
+rgatemod   =        0.0                         
+permod     =        1.0                         
+acnqsmod   =        0.0                         
+trnqsmod   =        0.0                         
+fnoimod    =        1.0                         
+tnoimod    =        1.0                         
+tempmod    =        0.0                         
***PROCESS PARAMETERS
+toxe       =        4.299402e-09	
+toxm       =        4.148e-09                   
+dtox       =        0.0                         
+epsrox     =        3.9                         
+xj = 1.5e-07   
+ngate = 1.0e+23   
+ndep = 1.7e+17   
+nsd = 1.0e+20   
+rsh        =        1.0                         
+rshg       =        0.1                         
***BASIC MODEL PARAMETERS
+wint       =        4.852e-08	   
+lint       =        -1.025e-10	   
+vth0 = 3.891386025e-01	
+k1 = 5.511486509e-01   lk1 = -4.741281040e-07   wk1 = 4.461294048e-07   pk1 = -2.676867885e-12   
+k2 = -6.084000737e-02   lk2 = 1.701940590e-07   wk2 = -1.490574849e-07   pk2 = 8.943754662e-13   
+k3 = 1.65   
+k3b = 1.6   
+w0 = 1.0e-07   
+dvt0 = 0.07665   
+dvt1 = 0.1252   
+dvt2 = -0.05637   
+dvt0w = 0.0   
+dvt1w = 5300000.0   
+dvt2w = -0.032   
+dsub = 1.155208252e+00   ldsub = -3.571371532e-06   wdsub = -4.108698758e-06   pdsub = 2.465303483e-11   
+minv = 0.0   
+voffl      =        0.0                         
+lpe0 = 2.3802e-07   
+lpeb = -4.9152e-08   
+vbm = -3.0   
+dvtp0 = 0.0   
+dvtp1 = 0.0   
+phin = 0.0   
+cdsc = 3.8556e-37   
+cdscb = -0.00011484   
+cdscd = 4.7984e-06   
+cit = 1.0e-05   
+voff = -1.154508115e-01	
+nfactor = 6.114977880e-01	   lnfactor = 3.232311105e-06   wnfactor = 5.054460170e-06   pnfactor = -3.032779718e-11   
+eta0 = 2.508105884e-01   leta0 = -1.024898547e-06   weta0 = -1.179098660e-06   peta0 = 7.074833672e-12   
+etab = -2.193249798e-01   letab = 8.959804906e-07   wetab = 1.030784363e-06   petab = -6.184917487e-12   
+vfb = 0.0   
+u0 = 2.719159235e-02	   lu0 = 2.679552137e-08   wu0 = 2.570023357e-08   pu0 = -1.542066700e-13   
+ua = -1.462084618e-09   lua = 9.649404758e-16   wua = 6.147740321e-16   pua = -3.688770221e-21   
+ub = 2.661999530e-18   lub = -1.437620931e-25   wub = 2.211662794e-25   pub = -1.327043015e-30   
+uc = 6.419397398e-11   luc = 3.574937750e-17   wuc = 3.713789992e-17   puc = -2.228350128e-22   
+ud = 0.0   
+up = 0.0   
+lp = 1.0   
+eu = 1.67   
+vtl = 0.0   
+xn = 0.0   
+vsat = 4.217642935e+05   lvsat = -1.563799189e+00   wvsat = -2.928599273e+00   pvsat = 1.757219600e-05   
+a0 = 2.007089963e+00   la0 = -2.526594118e-07   wa0 = 1.829011908e-07   pa0 = -1.097444640e-12   
+ags = -1.436223387e+00   lags = 1.163865996e-05   wags = 1.323432201e-05   pags = -7.940864507e-11   
+a1 = 0.0   
+a2 = 0.38689047   
+b0 = 0.0   
+b1 = 0.0   
+keta = 3.964739356e-01   lketa = -2.378924891e-06   wketa = -2.736843719e-06   pketa = 1.642162337e-11   
+dwg = -1.33e-08   
+dwb = -1.08e-08   
+pclm = 1.157980269e-01   lpclm = 5.052291000e-07   wpclm = 2.397559933e-06   ppclm = -1.438585110e-11   
+pdiblc1 = 0.39   
+pdiblc2 = -3.302729735e-03   lpdiblc2 = 4.860423900e-08   wpdiblc2 = 3.121274376e-08   ppdiblc2 = -1.872828612e-13   
+pdiblcb = 0.0   
+drout = 3.4946   
+pscbe1 = 450000000.0   
+pscbe2 = 1.0e-08   
+pvag = 0.0   
+delta = 0.01   
+fprout = 0.0   
+pdits = 1.4427e-15   
+pditsl     =        0.0                         
+pditsd = 0.0   
+lambda     =        0.0                         
+lc         =        0.0                         
***PARAMETERS FOR ASYMMETRIC AND BIAS-DEPENDENT RDS MODEL******
+rdsw = 103.65   
+rsw = 0.0   
+rdw = 0.0   
+rdswmin    =        0.0                         
+rdwmin     =        0.0                         
+rswmin     =        0.0                         
+prwb = 0.0   
+prwg = 0.0   
+wr = 1.0   
***IMPACT IONIZATION CURRENT MODEL PARAMTERS******************
+alpha0 = -1.218317338e-05   lalpha0 = 5.791927707e-10   walpha0 = 1.364338500e-09   palpha0 = -8.186310688e-15   
+alpha1 = 0.0   
+beta0 = 1.031788184e+01   lbeta0 = 4.503213949e-05   wbeta0 = 5.569571147e-05   pbeta0 = -3.341856865e-10   
***GIDL INDUCED DRAIN LEAKAGE MODEL PARAMETERS*****************
+agidl = 0.0   
+bgidl = 2300000000.0   
+cgidl = 0.5   
+egidl = 0.8   
***GATE DIELECTRIC TUNNELING CURRENT MODEL PARAMETERS**********
+toxref     =        4.148e-09                   
+dlcig = 0.0   
+aigbacc = 1.0   
+bigbacc = 0.0   
+cigbacc = 0.0   
+nigbacc = 1.0   
+aigbinv = 0.35   
+bigbinv = 0.03   
+cigbinv = 0.006   
+eigbinv = 1.1   
+nigbinv = 3.0   
+aigc = 0.43   
+bigc = 0.054   
+cigc = 0.075   
+aigsd = 0.43   
+bigsd = 0.054   
+cigsd = 0.075   
+nigc = 1.0   
+poxedge = 1.0   
+pigcd = 1.0   
+ntox = 1.0   
+vfbsdoff   =        0.0                         
***CHARGE AND CAPACITANCE MODEL PARAMETERS********************
+dlc        =        2.241e-09                   
+dwc        =        4.852e-08                   
+xpart      =        0.0                         
+cgso       =        2.49362848e-10              
+cgdo       =        2.49362848e-10              
+cgbo       =        1.0e-14                     
+cgdl = 2.408e-11   
+cgsl = 2.408e-11   
+clc = 1.0e-07   
+cle = 0.6   
+cf = 1.0e-14   
+ckappas = 0.6   
+vfbcv = -1.0   
+acde = 0.38008   
+moin = 23.81   
+noff = 3.8661   
+voffcv = -0.16994   
***HIGH-SPEED/RF MODEL PARAMETERS******************************
+xrcrg1     =        12.0                        
+xrcrg2     =        1.0                         
+rbpb       =        50.0                        
+rbpd       =        50.0                        
+rbps       =        50.0                        
+rbdb       =        50.0                        
+rbsb       =        50.0                        
+gbmin      =        1.0e-12                     
***FLICKER AND THERMAL NOISE MODEL PARAMETERS******************
+ef         =        1.2                         
+noia       =        9.0e+41                     
+noib       =        1.0e+27                     
+noic       =        800000000000.0              
+em         =        41000000.0                  
+ntnoi      =        1.0                         
+lintnoi    =        -3.0e-07                    
+af         =        1.0                         
+kf         =        0.0                         
+tnoia      =        25000000.0                  
+tnoib      =        9900000.0                   
+rnoia      =        0.912                       
+rnoib      =        0.26                        
***LAYOUT-DEPENDENT PARASITICS MODEL PARAMETERS****************
+xl         =        0.0                         
+xw         =        0.0                         
+dmcg       =        0.0                         
+dmdg       =        0.0                         
+dmcgt      =        0.0                         
+xgw        =        0.0                         
+xgl        =        0.0                         
+ngcon      =        1.0                         
***ASYMMETRIC SOURCE/DRAIN JUNCTION DIODE MODEL PARAMETERS*****
+jss        =        0.00275                     
+jsws       =        6.0e-10                     
+ijthsfwd   =        0.1                         
+ijthsrev   =        0.1                         
+bvs        =        11.9                        
+xjbvs      =        1.0                         
+pbs        =        0.7477                      
+cjs        =        0.0013575861                
+mjs        =        0.42197                     
+pbsws      =        0.1                         
+cjsws      =        3.62566016e-11              
+mjsws      =        0.001                       
+pbswgs     =        0.79644                     
+cjswgs     =        2.01501188e-10              
+mjswgs     =        0.8                         

***TEMPERATURE DEPENDENCE PARAMETERS***************************
+tnom       =        30.0                        
+kt1 = -2.537193844e-01   lkt1 = 4.763224897e-10   wkt1 = 5.932571872e-09   pkt1 = -3.559664741e-14   
+kt2 = -4.470697657e-02   lkt2 = 6.170596761e-08   wkt2 = 7.467624844e-08   pkt2 = -4.480727993e-13   
+at = 8.989946529e+05   lat = -3.395603930e+00   wat = -2.479370100e-01   pat = 1.487672887e-06   
+ute = -8.988029178e-01   lute = -1.073419167e-06   wute = 4.108306021e-07   pute = -2.465067833e-12   
+ua1 = 1.494125403e-09   lua1 = 7.129291157e-15   wua1 = 4.846911219e-15   pua1 = -2.908246093e-20   
+ub1 = 2.771295515e-19   lub1 = -1.632313500e-23   wub1 = -7.322276833e-24   pub1 = 4.393516206e-29   
+uc1 = 1.298211278e-11   luc1 = -1.932372787e-16   wuc1 = -1.152402086e-16   puc1 = 6.914648759e-22   
+kt1l = 0.0   
+prt = 0.0   
+tvoff = 0.0   
+njs        =        1.2928                      
+tpb        =        0.0012287                   
+tcj        =        0.000792                    
+tpbsw      =        0.0                         
+tcjsw      =        1.0e-05                     
+tpbswg     =        0.0                         
+tcjswg     =        0.0                         
+xtis       =        2.0                         
+tvfbsdoff  =        0.0                         
***DW AND DL PARAMETERS****************************************
+ll         =        0.0                         
+wl         =        0.0                         
+lln        =        1.0                         
+wln        =        1.0                         