* BSIMTran Version 0.1.24, Created on 4-26-2002
* Username: pxg
* Command Line: /home/pxg/config/cydir/bin/lnx86/bsimtran nmos_bsim4.rf nmos -p -nnlowvt nlowvt_modelnamechanged.pm3 nlowvt_ov.pm nlvt_diode_iv.pm nlvt_diode_cv.pm nlowvt_bsimtranoutput.pm3 
* Working Directory: /home/pxg/rams/s8/models.3.1/rev_model/nlowvt/discrete/combined
* Time: Fri May 25 10:44:04 2007
* Rule File:  nmos_bsim4.rf
* Output File:  nlowvt_bsimtranoutput.pm3
* Input Files:
* (1) nlowvt_modelnamechanged.pm3
* (2) nlowvt_ov.pm
* (3) nlvt_diode_iv.pm
* (4) nlvt_diode_cv.pm
*copyright, Cypress Semiconductor, 2002
*BSIM3.V3 NMOS Model

.model nlowvt.0 nmos
*
*DC IV MOS PARAMETERS
*
+lmin = 9.95e-07  lmax = 1.005e-06  wmin = 9.95e-07  wmax = 1.005e-06
+level      =        54                          
+tnom       =        30                          
+version    =        4.5                         
+toxm       =        4.148e-009                  
+xj = 1.5e-007   
+lln        =        1                           
+lwn        =        1                           
+wln        =        1                           
+wwn        =        1                           
+lint       =        '1.2025e-008+nlowvt_lint_diff'	   
+ll         =        0                           
+lw         =        0                           
+lwl        =        0                           
+wint       =        '2.6e-008+nlowvt_wint_diff'	   
+wl         =        0                           
+ww         =        0                           
+wwl        =        0                           
+xl         =        0                           
+xw         =        0                           
+mobmod     =        0                           
+binunit    =        2                           
+dwg = -1.33e-008   
+dwb = -1.08e-008   
*NEW BSIM4 Parameters(Model Selectors)
+igcmod     =        0                           
+igbmod     =        0                           
+rgatemod   =        0                           
+rbodymod   =        1                           
+trnqsmod   =        0                           
+acnqsmod   =        0                           
+fnoimod    =        1                           
+tnoimod    =        1                           
+permod     =        1                           
+geomod     =        0                           
+rdsmod     =        0                           
+tempmod    =        0                           
*******
*NEW BSIM4 Parameters(4.4 Version)
+lintnoi    =        -3.0e-07                           
+vfbsdoff   =        0                           
+lambda     =        0                           
+vtl        =        0                           
+lc         =        0                           
+xn         =        0                           
+rnoia      =        0.912
+rnoib      =        0.26
+tnoia     =         2.5e7
+tnoib     =        9.9e6
*NEW BSIM4 Parameters(Process Parameters)
+epsrox     =        3.9                         
+toxe       =        '4.148e-009*nlowvt_toxe_mult'	
+dtox       =        0                           
+ndep = 1.7e+017   
+nsd = 1e+020   
+rshg       =        0.1                         
****
+rsh        =        '1*nlowvt_rshn_mult'        
*
* THRESHOLD VOLTAGE PARAMETERS
*
+vth0 = '0.44292+nlowvt_vth0_diff_0'	
+k1 = 0.45748   
+k2 = '-0.040708+nlowvt_k2_diff_0'   
+k3 = 1.65   
+dvt0 = 0.07665   
+dvt1 = 0.1252   
+dvt2 = -0.05637   
+dvt0w = 0   
+dvt1w = 5300000   
+dvt2w = -0.032   
+w0 = 1e-007   
+k3b = 1.6   
+vfb = 0   
*NEW BSIM4 Parameters for Level 54
+phin = 0   
+lpe0 = 2.3802e-007   
+lpeb = -4.9152e-008   
+vbm = -3   
+dvtp0 = 0   
+dvtp1 = 0   
*
* MOBILITY PARAMETERS
*
+vsat = '84096+nlowvt_vsat_diff_0'   
+ua = '-1.5106e-009+nlowvt_ua_diff_0'   
+ub = '2.3749e-018+nlowvt_ub_diff_0'   
+uc = 4.4533e-011   
+rdsw = '103.65+nlowvt_rdsw_diff_0'   
+prwb = 0   
+prwg = 0   
+wr = 1   
+u0 = '0.026527+nlowvt_u0_diff_0'   
+a0 = '1.5497+nlowvt_a0_diff_0'   
+keta = '-0.11251+nlowvt_keta_diff_0'   
+a1 = 0   
+a2 = 0.38689047   
+ags = '1.8405+nlowvt_ags_diff_0'   
+b0 = '0+nlowvt_b0_diff_0'   
+b1 = '0+nlowvt_b1_diff_0'   
*NEW BSIM4 Parameters(Mobility Parameters)
+eu         =        1.67                        
+rdswmin    =        0                           
+rdw = 0   
+rdwmin     =        0                           
+rsw = 0   
+rswmin     =        0                           
*****
*
* SUBTHRESHOLD CURRENT PARAMETERS
*
+voff = '-0.11515019+nlowvt_voff_diff_0'	
+nfactor = '1.0396987+nlowvt_nfactor_diff_0'	   
+up = 0.0
+ud = 0.0
+lp = 1.0
+tvfbsdoff = 0.0
+tvoff = '0+nlowvt_tvoff_diff_0'
+cit = 5e-006   
+cdsc = 3.8556e-037   
+cdscb = -0.00011484   
+cdscd = 4.7984e-006   
+eta0 = '0.00043348+nlowvt_eta0_diff_0'   
+etab = -0.00047191   
+dsub = 0.57273167   
*NEW BSIM4 Parameters(Sub-threshold parameters)
+voffl = 0   
+minv = 0   
*****
*
* ROUT PARAMETERS
*
+pclm = '0.21192+nlowvt_pclm_diff_0'   
+pdiblc1 = 0.39   
+pdiblc2 = 0.014693   
+pdiblcb = 0   
+drout = 3.4946   
+pscbe1 = 4.5e+008   
+pscbe2 = 1e-008   
+pvag = 0   
+delta = 0.01   
+alpha0 = 4.7058626e-005   
+alpha1 = 0   
+beta0 = 20.772941   
*NEW BSIM4 Parameters(ROUT Parameters)
+fprout = 0   
+pdits = '1.4427e-015+nlowvt_pdits_diff_0'   
+pditsl     =        0                           
+pditsd = '0+nlowvt_pditsd_diff_0'   
****
*NEW BSIM4 Parameters(GATE INDUCED DRAIN LEAKAGE MODEL PARAMTERS)
+agidl = 0   
+bgidl = 2.3e+009   
+cgidl = 0.5   
+egidl = 0.8   
****
*NEW BSIM4 Parameters(Gate Leakage Current Parameters)
+aigbacc = 1   
+bigbacc = 0   
+cigbacc = 0   
+nigbacc = 1   
+aigbinv = 0.35   
+bigbinv = 0.03   
+cigbinv = 0.006   
+eigbinv = 1.1   
+nigbinv = 3   
+aigc = 0.43   
+bigc = 0.054   
+cigc = 0.075   
+nigc = 1   
+aigsd = 0.43   
+bigsd = 0.054   
+cigsd = 0.075   
+dlcig = 0   
+poxedge = 1   
+pigcd = 1   
+ntox = 1   
+toxref     =        4.148e-009                  
*****
*
* TEMPERATURE EFFECTS PARAMETERS
*
+kt1 = '-0.26953+nlowvt_kt1_diff_0'   
+kt2 = -0.022714   
+at = 78553   
+ute = -1.0929   
+ua1 = 1.9956e-009   
+ub1 = -1.7256e-018   
+uc1 = -4.9957e-011   
+kt1l = 0   
+prt = 0   
*NEW BSIM4 Parameters(HIGH SPEED RF MODEL PARAMETERS)
+xrcrg1 = 12   
+xrcrg2 = 1   
+rbpb       =        50                          
+rbpd       =        50                          
+rbps       =        50                          
+rbdb       =        50                          
+rbsb       =        50                          
+gbmin      =        1e-012                      
****
*NEW BSIM4 Parameters(FLICKER and THERMAL NOISE PARAMETERS)
+noia      =        9.0e+41                   
+noib      =        1.0e+27                  
+noic      =         800000000000.0                   
+em         =        4.1000000E+07                    
+af         =        1                           
+ef        =        1.2                           
+kf         =        0                           
+ntnoi      =        1                           
*****
*NEW BSIM4 Parameters(LAYOUT DEPENDENT PARASITIC MODEL PARAMETERS)
+dmcg       =        0                           
+dmcgt      =        0                           
+dmdg       =        0                           
+xgw        =        0                           
+xgl        =        0                           
+ngcon      =        1                           
****
*
*DIODE DC IV PARAMTERS
*
*NEW BSIM4 Parameters(DIODE DC IV parameters)
+diomod     =        1                           
+njs        =        1.2928                      
+jss        =        0.0027500000000000003       
+jsws       =        6e-10                       
+xtis       =        2                           
+bvs        =        11.9                        
+xjbvs      =        1                           
+ijthsrev   =        0.1                         
+ijthsfwd   =        0.1                         
*
* DIODE and FET CAPACITANCE PARAMETERS
*
+tpb        =        0.0012287                   
+tpbsw      =        0                           
+tpbswg     =        0                           
+tcj        =        0.000792                    
+tcjsw      =        1e-005                      
+tcjswg     =        0                           
+cgdo       =        '2.5889e-010*nlowvt_overlap_mult'   
+cgso       =        '2.5889e-010*nlowvt_overlap_mult'   
+cgbo       =        1e-014                      
+capmod     =        2                           
+xpart      =        0                           
+cgsl       =        '2.5e-011*nlowvt_overlap_mult'   
+cgdl       =        '2.5e-011*nlowvt_overlap_mult'   
+cf         =        1e-014                      
+clc        =        1e-007                      
+cle        =        0.6                         
+dlc        =        '1.3469e-008+nlowvt_dlc_diff+nlowvt_dlc_rotweak'   
+dwc        =        '2.6e-008+nlowvt_dwc_diff'   
+vfbcv      =        -1                          
+acde       =        0.38008                     
+moin       =        23.81                       
+noff       =        3.8661                      
+voffcv     =        -0.16994                    
+ngate      =        1e+023                      
+lwc        =        0                           
+llc        =        0                           
+lwlc       =        0                           
+wlc        =        0                           
+wwc        =        0                           
+wwlc       =        0                           
*NEW BSIM4 Parameters(FET and DIODE capacitance parameters)
+ckappas    =        0.6                         
+cjs        =        '0.001209*nlowvt_ajunction_mult'   
+mjs        =        0.42197                     
+pbs        =        0.7477                      
+cjsws      =        '3.6224e-011*nlowvt_pjunction_mult'   
+mjsws      =        0.001                       
+pbsws      =        0.1                         
+cjswgs     =        '2.0132e-010*nlowvt_pjunction_mult'   
+mjswgs     =        0.8000                      
+pbswgs     =        0.79644                     
* 
*STRESS PARAMETERS 
* 
+saref   = 2.74e-06
+sbref   = 2.74e-06
+wlod    = 0
+kvth0    = 7.9e-9
+lkvth0  = 0
+wkvth0  = 0.3e-6
+pkvth0  = 0
+llodvth = 0
+wlodvth  = 1
+stk2    = 0
+lodk2   = 1
+lodeta0 = 1
+ku0    = -2.7e-08
+lku0    = 0
+wku0    = 0
+pku0    = 0
+llodku0 = 0
+wlodku0  = 1
+kvsat   = 0.2
+steta0  = 0
+tku0    = 0
******

.model nlowvt.1 nmos
*
*DC IV MOS PARAMETERS
*
+lmin = 1.995e-06  lmax = 2.005e-06  wmin = 9.95e-07  wmax = 1.005e-06
+level      =        54                          
+tnom       =        30                          
+version    =        4.5                         
+toxm       =        4.148e-009                  
+xj = 1.5e-007   
+lln        =        1                           
+lwn        =        1                           
+wln        =        1                           
+wwn        =        1                           
+lint       =        '1.2025e-008+nlowvt_lint_diff'	   
+ll         =        0                           
+lw         =        0                           
+lwl        =        0                           
+wint       =        '2.6e-008+nlowvt_wint_diff'	   
+wl         =        0                           
+ww         =        0                           
+wwl        =        0                           
+xl         =        0                           
+xw         =        0                           
+mobmod     =        0                           
+binunit    =        2                           
+dwg = -1.33e-008   
+dwb = -1.08e-008   
*NEW BSIM4 Parameters(Model Selectors)
+igcmod     =        0                           
+igbmod     =        0                           
+rgatemod   =        0                           
+rbodymod   =        1                           
+trnqsmod   =        0                           
+acnqsmod   =        0                           
+fnoimod    =        1                           
+tnoimod    =        1                           
+permod     =        1                           
+geomod     =        0                           
+rdsmod     =        0                           
+tempmod    =        0                           
*******
*NEW BSIM4 Parameters(4.4 Version)
+lintnoi    =        -3.0e-07                           
+vfbsdoff   =        0                           
+lambda     =        0                           
+vtl        =        0                           
+lc         =        0                           
+xn         =        0                           
+rnoia      =        0.912
+rnoib      =        0.26
+tnoia     =         2.5e7
+tnoib     =        9.9e6
*NEW BSIM4 Parameters(Process Parameters)
+epsrox     =        3.9                         
+toxe       =        '4.148e-009*nlowvt_toxe_mult'	
+dtox       =        0                           
+ndep = 1.7e+017   
+nsd = 1e+020   
+rshg       =        0.1                         
****
+rsh        =        '1*nlowvt_rshn_mult'        
*
* THRESHOLD VOLTAGE PARAMETERS
*
+vth0 = '0.43904+nlowvt_vth0_diff_1'	
+k1 = 0.45793   
+k2 = '-0.03517+nlowvt_k2_diff_1'   
+k3 = 1.65   
+dvt0 = 0.07665   
+dvt1 = 0.1252   
+dvt2 = -0.05637   
+dvt0w = 0   
+dvt1w = 5300000   
+dvt2w = -0.032   
+w0 = 1e-007   
+k3b = 1.6   
+vfb = 0   
*NEW BSIM4 Parameters for Level 54
+phin = 0   
+lpe0 = 2.3802e-007   
+lpeb = -4.9152e-008   
+vbm = -3   
+dvtp0 = 0   
+dvtp1 = 0   
*
* MOBILITY PARAMETERS
*
+vsat = '42698+nlowvt_vsat_diff_1'   
+ua = '-1.1127e-009+nlowvt_ua_diff_1'   
+ub = '2.2971e-018+nlowvt_ub_diff_1'   
+uc = 5.1465e-011   
+rdsw = '103.65+nlowvt_rdsw_diff_1'   
+prwb = 0   
+prwg = 0   
+wr = 1   
+u0 = '0.032411+nlowvt_u0_diff_1'   
+a0 = '1.9169+nlowvt_a0_diff_1'   
+keta = '-0.18123+nlowvt_keta_diff_1'   
+a1 = 0   
+a2 = 0.38689047   
+ags = '1.5934+nlowvt_ags_diff_1'   
+b0 = '0+nlowvt_b0_diff_1'   
+b1 = '0+nlowvt_b1_diff_1'   
*NEW BSIM4 Parameters(Mobility Parameters)
+eu         =        1.67                        
+rdswmin    =        0                           
+rdw = 0   
+rdwmin     =        0                           
+rsw = 0   
+rswmin     =        0                           
*****
*
* SUBTHRESHOLD CURRENT PARAMETERS
*
+voff = '-0.11703977+nlowvt_voff_diff_1'	
+nfactor = '0.89325217+nlowvt_nfactor_diff_1'	   
+up = 0.0
+ud = 0.0
+lp = 1.0
+tvfbsdoff = 0.0
+tvoff = '0+nlowvt_tvoff_diff_1'
+cit = 1e-005   
+cdsc = 3.8556e-037   
+cdscb = -0.00011484   
+cdscd = 4.7984e-006   
+eta0 = '0.0005+nlowvt_eta0_diff_1'   
+etab = -0.0005   
+dsub = 0.40224308   
*NEW BSIM4 Parameters(Sub-threshold parameters)
+voffl = 0   
+minv = 0   
*****
*
* ROUT PARAMETERS
*
+pclm = '0.23453+nlowvt_pclm_diff_1'   
+pdiblc1 = 0.39   
+pdiblc2 = 0.011748   
+pdiblcb = 0   
+drout = 3.4946   
+pscbe1 = 4.5e+008   
+pscbe2 = 1e-008   
+pvag = 0   
+delta = 0.01   
+alpha0 = 0.00012443488   
+alpha1 = 0   
+beta0 = 21.191235   
*NEW BSIM4 Parameters(ROUT Parameters)
+fprout = 0   
+pdits = '1.4427e-015+nlowvt_pdits_diff_1'   
+pditsl     =        0                           
+pditsd = '0+nlowvt_pditsd_diff_1'   
****
*NEW BSIM4 Parameters(GATE INDUCED DRAIN LEAKAGE MODEL PARAMTERS)
+agidl = 0   
+bgidl = 2.3e+009   
+cgidl = 0.5   
+egidl = 0.8   
****
*NEW BSIM4 Parameters(Gate Leakage Current Parameters)
+aigbacc = 1   
+bigbacc = 0   
+cigbacc = 0   
+nigbacc = 1   
+aigbinv = 0.35   
+bigbinv = 0.03   
+cigbinv = 0.006   
+eigbinv = 1.1   
+nigbinv = 3   
+aigc = 0.43   
+bigc = 0.054   
+cigc = 0.075   
+nigc = 1   
+aigsd = 0.43   
+bigsd = 0.054   
+cigsd = 0.075   
+dlcig = 0   
+poxedge = 1   
+pigcd = 1   
+ntox = 1   
+toxref     =        4.148e-009                  
*****
*
* TEMPERATURE EFFECTS PARAMETERS
*
+kt1 = '-0.26852+nlowvt_kt1_diff_1'   
+kt2 = -0.037089   
+at = 49172   
+ute = -1.1197   
+ua1 = 2.0463e-009   
+ub1 = -1.8943e-018   
+uc1 = -9.1901e-012   
+kt1l = 0   
+prt = 0   
*NEW BSIM4 Parameters(HIGH SPEED RF MODEL PARAMETERS)
+xrcrg1 = 12   
+xrcrg2 = 1   
+rbpb       =        50                          
+rbpd       =        50                          
+rbps       =        50                          
+rbdb       =        50                          
+rbsb       =        50                          
+gbmin      =        1e-012                      
****
*NEW BSIM4 Parameters(FLICKER and THERMAL NOISE PARAMETERS)
+noia      =        9.0e+41                   
+noib      =        1.0e+27                  
+noic      =         800000000000.0                   
+em         =        4.1000000E+07                    
+af         =        1                           
+ef        =        1.2                           
+kf         =        0                           
+ntnoi      =        1                           
*****
*NEW BSIM4 Parameters(LAYOUT DEPENDENT PARASITIC MODEL PARAMETERS)
+dmcg       =        0                           
+dmcgt      =        0                           
+dmdg       =        0                           
+xgw        =        0                           
+xgl        =        0                           
+ngcon      =        1                           
****
*
*DIODE DC IV PARAMTERS
*
*NEW BSIM4 Parameters(DIODE DC IV parameters)
+diomod     =        1                           
+njs        =        1.2928                      
+jss        =        0.0027500000000000003       
+jsws       =        6e-10                       
+xtis       =        2                           
+bvs        =        11.9                        
+xjbvs      =        1                           
+ijthsrev   =        0.1                         
+ijthsfwd   =        0.1                         
*
* DIODE and FET CAPACITANCE PARAMETERS
*
+tpb        =        0.0012287                   
+tpbsw      =        0                           
+tpbswg     =        0                           
+tcj        =        0.000792                    
+tcjsw      =        1e-005                      
+tcjswg     =        0                           
+cgdo       =        '2.5889e-010*nlowvt_overlap_mult'   
+cgso       =        '2.5889e-010*nlowvt_overlap_mult'   
+cgbo       =        1e-014                      
+capmod     =        2                           
+xpart      =        0                           
+cgsl       =        '2.5e-011*nlowvt_overlap_mult'   
+cgdl       =        '2.5e-011*nlowvt_overlap_mult'   
+cf         =        1e-014                      
+clc        =        1e-007                      
+cle        =        0.6                         
+dlc        =        '1.3469e-008+nlowvt_dlc_diff+nlowvt_dlc_rotweak'   
+dwc        =        '2.6e-008+nlowvt_dwc_diff'   
+vfbcv      =        -1                          
+acde       =        0.38008                     
+moin       =        23.81                       
+noff       =        3.8661                      
+voffcv     =        -0.16994                    
+ngate      =        1e+023                      
+lwc        =        0                           
+llc        =        0                           
+lwlc       =        0                           
+wlc        =        0                           
+wwc        =        0                           
+wwlc       =        0                           
*NEW BSIM4 Parameters(FET and DIODE capacitance parameters)
+ckappas    =        0.6                         
+cjs        =        '0.001209*nlowvt_ajunction_mult'   
+mjs        =        0.42197                     
+pbs        =        0.7477                      
+cjsws      =        '3.6224e-011*nlowvt_pjunction_mult'   
+mjsws      =        0.001                       
+pbsws      =        0.1                         
+cjswgs     =        '2.0132e-010*nlowvt_pjunction_mult'   
+mjswgs     =        0.8000                      
+pbswgs     =        0.79644                     
* 
*STRESS PARAMETERS 
* 
+saref   = 3.0e-06
+sbref   = 3.0e-06
+wlod    = 0
+kvth0    = 7.9e-9
+lkvth0  = 0
+wkvth0  = 0.3e-6
+pkvth0  = 0
+llodvth = 0
+wlodvth  = 1
+stk2    = 0
+lodk2   = 1
+lodeta0 = 1
+ku0    = -2.7e-08
+lku0    = 0
+wku0    = 0
+pku0    = 0
+llodku0 = 0
+wlodku0  = 1
+kvsat   = 0.2
+steta0  = 0
+tku0    = 0
******

.model nlowvt.2 nmos
*
*DC IV MOS PARAMETERS
*
+lmin = 3.995e-06  lmax = 4.005e-06  wmin = 9.95e-07  wmax = 1.005e-06
+level      =        54                          
+tnom       =        30                          
+version    =        4.5                         
+toxm       =        4.148e-009                  
+xj = 1.5e-007   
+lln        =        1                           
+lwn        =        1                           
+wln        =        1                           
+wwn        =        1                           
+lint       =        '1.2025e-008+nlowvt_lint_diff'	   
+ll         =        0                           
+lw         =        0                           
+lwl        =        0                           
+wint       =        '2.6e-008+nlowvt_wint_diff'	   
+wl         =        0                           
+ww         =        0                           
+wwl        =        0                           
+xl         =        0                           
+xw         =        0                           
+mobmod     =        0                           
+binunit    =        2                           
+dwg = -1.33e-008   
+dwb = -1.08e-008   
*NEW BSIM4 Parameters(Model Selectors)
+igcmod     =        0                           
+igbmod     =        0                           
+rgatemod   =        0                           
+rbodymod   =        1                           
+trnqsmod   =        0                           
+acnqsmod   =        0                           
+fnoimod    =        1                           
+tnoimod    =        1                           
+permod     =        1                           
+geomod     =        0                           
+rdsmod     =        0                           
+tempmod    =        0                           
*******
*NEW BSIM4 Parameters(4.4 Version)
+lintnoi    =        -3.0e-07                           
+vfbsdoff   =        0                           
+lambda     =        0                           
+vtl        =        0                           
+lc         =        0                           
+xn         =        0                           
+rnoia      =        0.912
+rnoib      =        0.26
+tnoia     =         2.5e7
+tnoib     =        9.9e6
*NEW BSIM4 Parameters(Process Parameters)
+epsrox     =        3.9                         
+toxe       =        '4.148e-009*nlowvt_toxe_mult'	
+dtox       =        0                           
+ndep = 1.7e+017   
+nsd = 1e+020   
+rshg       =        0.1                         
****
+rsh        =        '1*nlowvt_rshn_mult'        
*
* THRESHOLD VOLTAGE PARAMETERS
*
+vth0 = '0.42802+nlowvt_vth0_diff_2'	
+k1 = 0.53326   
+k2 = '-0.067164508+nlowvt_k2_diff_2'   
+k3 = 1.65   
+dvt0 = 0.07665   
+dvt1 = 0.1252   
+dvt2 = -0.05637   
+dvt0w = 0   
+dvt1w = 5300000   
+dvt2w = -0.032   
+w0 = 1e-007   
+k3b = 1.6   
+vfb = 0   
*NEW BSIM4 Parameters for Level 54
+phin = 0   
+lpe0 = 2.3802e-007   
+lpeb = -4.9152e-008   
+vbm = -3   
+dvtp0 = 0   
+dvtp1 = 0   
*
* MOBILITY PARAMETERS
*
+vsat = '200550+nlowvt_vsat_diff_2'   
+ua = '-9.7865e-010+nlowvt_ua_diff_2'   
+ub = '2.1353e-018+nlowvt_ub_diff_2'   
+uc = 2.2350587e-011   
+rdsw = '103.65+nlowvt_rdsw_diff_2'   
+prwb = 0   
+prwg = 0   
+wr = 1   
+u0 = '0.032501+nlowvt_u0_diff_2'   
+a0 = '1.9137+nlowvt_a0_diff_2'   
+keta = '0+nlowvt_keta_diff_2'   
+a1 = 0   
+a2 = 0.38689047   
+ags = '0.51517+nlowvt_ags_diff_2'   
+b0 = '0+nlowvt_b0_diff_2'   
+b1 = '0+nlowvt_b1_diff_2'   
*NEW BSIM4 Parameters(Mobility Parameters)
+eu         =        1.67                        
+rdswmin    =        0                           
+rdw = 0   
+rdwmin     =        0                           
+rsw = 0   
+rswmin     =        0                           
*****
*
* SUBTHRESHOLD CURRENT PARAMETERS
*
+voff = '-0.11023409+nlowvt_voff_diff_2'	
+nfactor = '0.8176398+nlowvt_nfactor_diff_2'	   
+up = 0.0
+ud = 0.0
+lp = 1.0
+tvfbsdoff = 0.0
+tvoff = '0+nlowvt_tvoff_diff_2'
+cit = 1e-005   
+cdsc = 3.8556e-037   
+cdscb = -0.00011484   
+cdscd = 4.7984e-006   
+eta0 = '0.08+nlowvt_eta0_diff_2'   
+etab = -0.07   
+dsub = 0.56   
*NEW BSIM4 Parameters(Sub-threshold parameters)
+voffl = 0   
+minv = 0   
*****
*
* ROUT PARAMETERS
*
+pclm = '0.2+nlowvt_pclm_diff_2'   
+pdiblc1 = 0.39   
+pdiblc2 = 0.0075691   
+pdiblcb = 0   
+drout = 3.4946   
+pscbe1 = 4.5e+008   
+pscbe2 = 1e-008   
+pvag = 0   
+delta = 0.01   
+alpha0 = 4.1734937e-005   
+alpha1 = 0   
+beta0 = 17.793363   
*NEW BSIM4 Parameters(ROUT Parameters)
+fprout = 0   
+pdits = '1.4427e-015+nlowvt_pdits_diff_2'   
+pditsl     =        0                           
+pditsd = '0+nlowvt_pditsd_diff_2'   
****
*NEW BSIM4 Parameters(GATE INDUCED DRAIN LEAKAGE MODEL PARAMTERS)
+agidl = 0   
+bgidl = 2.3e+009   
+cgidl = 0.5   
+egidl = 0.8   
****
*NEW BSIM4 Parameters(Gate Leakage Current Parameters)
+aigbacc = 1   
+bigbacc = 0   
+cigbacc = 0   
+nigbacc = 1   
+aigbinv = 0.35   
+bigbinv = 0.03   
+cigbinv = 0.006   
+eigbinv = 1.1   
+nigbinv = 3   
+aigc = 0.43   
+bigc = 0.054   
+cigc = 0.075   
+nigc = 1   
+aigsd = 0.43   
+bigsd = 0.054   
+cigsd = 0.075   
+dlcig = 0   
+poxedge = 1   
+pigcd = 1   
+ntox = 1   
+toxref     =        4.148e-009                  
*****
*
* TEMPERATURE EFFECTS PARAMETERS
*
+kt1 = '-0.25763+nlowvt_kt1_diff_2'   
+kt2 = -0.036364   
+at = 58230   
+ute = -1.1808   
+ua1 = 1.9636e-009   
+ub1 = -1.466e-018   
+uc1 = 6.3418e-011   
+kt1l = 0   
+prt = 0   
*NEW BSIM4 Parameters(HIGH SPEED RF MODEL PARAMETERS)
+xrcrg1 = 12   
+xrcrg2 = 1   
+rbpb       =        50                          
+rbpd       =        50                          
+rbps       =        50                          
+rbdb       =        50                          
+rbsb       =        50                          
+gbmin      =        1e-012                      
****
*NEW BSIM4 Parameters(FLICKER and THERMAL NOISE PARAMETERS)
+noia      =        9.0e+41                   
+noib      =        1.0e+27                  
+noic      =         800000000000.0                   
+em         =        4.1000000E+07                    
+af         =        1                           
+ef        =        1.2                           
+kf         =        0                           
+ntnoi      =        1                           
*****
*NEW BSIM4 Parameters(LAYOUT DEPENDENT PARASITIC MODEL PARAMETERS)
+dmcg       =        0                           
+dmcgt      =        0                           
+dmdg       =        0                           
+xgw        =        0                           
+xgl        =        0                           
+ngcon      =        1                           
****
*
*DIODE DC IV PARAMTERS
*
*NEW BSIM4 Parameters(DIODE DC IV parameters)
+diomod     =        1                           
+njs        =        1.2928                      
+jss        =        0.0027500000000000003       
+jsws       =        6e-10                       
+xtis       =        2                           
+bvs        =        11.9                        
+xjbvs      =        1                           
+ijthsrev   =        0.1                         
+ijthsfwd   =        0.1                         
*
* DIODE and FET CAPACITANCE PARAMETERS
*
+tpb        =        0.0012287                   
+tpbsw      =        0                           
+tpbswg     =        0                           
+tcj        =        0.000792                    
+tcjsw      =        1e-005                      
+tcjswg     =        0                           
+cgdo       =        '2.5889e-010*nlowvt_overlap_mult'   
+cgso       =        '2.5889e-010*nlowvt_overlap_mult'   
+cgbo       =        1e-014                      
+capmod     =        2                           
+xpart      =        0                           
+cgsl       =        '2.5e-011*nlowvt_overlap_mult'   
+cgdl       =        '2.5e-011*nlowvt_overlap_mult'   
+cf         =        1e-014                      
+clc        =        1e-007                      
+cle        =        0.6                         
+dlc        =        '1.3469e-008+nlowvt_dlc_diff+nlowvt_dlc_rotweak'   
+dwc        =        '2.6e-008+nlowvt_dwc_diff'   
+vfbcv      =        -1                          
+acde       =        0.38008                     
+moin       =        23.81                       
+noff       =        3.8661                      
+voffcv     =        -0.16994                    
+ngate      =        1e+023                      
+lwc        =        0                           
+llc        =        0                           
+lwlc       =        0                           
+wlc        =        0                           
+wwc        =        0                           
+wwlc       =        0                           
*NEW BSIM4 Parameters(FET and DIODE capacitance parameters)
+ckappas    =        0.6                         
+cjs        =        '0.001209*nlowvt_ajunction_mult'   
+mjs        =        0.42197                     
+pbs        =        0.7477                      
+cjsws      =        '3.6224e-011*nlowvt_pjunction_mult'   
+mjsws      =        0.001                       
+pbsws      =        0.1                         
+cjswgs     =        '2.0132e-010*nlowvt_pjunction_mult'   
+mjswgs     =        0.8000                      
+pbswgs     =        0.79644                     
* 
*STRESS PARAMETERS 
* 
+saref   = 3.0e-06
+sbref   = 3.0e-06
+wlod    = 0
+kvth0    = 7.9e-9
+lkvth0  = 0
+wkvth0  = 0.3e-6
+pkvth0  = 0
+llodvth = 0
+wlodvth  = 1
+stk2    = 0
+lodk2   = 1
+lodeta0 = 1
+ku0    = -2.7e-08
+lku0    = 0
+wku0    = 0
+pku0    = 0
+llodku0 = 0
+wlodku0  = 1
+kvsat   = 0.2