* BSIMTran Version 0.1.24, Created on 4-26-2002
* Username: qhc
* Command Line: /net/alexis/disk1/qhc/ICM_WA/qhc_s8tsafeg6_dev_178/config/cydir/bin/amd64/bsimtran nlowvt/nmos_bsim4.rf nmos -p -nnlowvt nlowvt_leak_raw.pm3 nlowvt_leak.pm3 
* Working Directory: /net/alexis/disk1/qhc/s8-models/s8x/models.3.5/spice/inverse_benny
* Time: Wed Jul  2 15:17:34 2014
* Rule File:  nlowvt/nmos_bsim4.rf
* Output File:  nlowvt_leak.pm3
* Input Files:
* (1) nlowvt_leak_raw.pm3
*copyright, Cypress Semiconductor, 2007
*BSIM4.V5 NMOS Model

.model nlowvt.0 nmos
*
***MODEL FLAG PARAMETERS
*
+lmin = 8.0e-06   lmax = 0.0001   wmin = 7.0e-06   wmax = 0.0001   
+level      =        54.0                        
+version    =        4.5                         
+binunit    =        2.0                         
+mobmod     =        0.0                         
+capmod     =        2.0                         
+igcmod     =        0.0                         
+igbmod     =        0.0                         
+geomod     =        0.0                         
+diomod     =        1.0                         
+rdsmod     =        0.0                         
+rbodymod   =        1.0                         
+rgatemod   =        0.0                         
+permod     =        1.0                         
+acnqsmod   =        0.0                         
+trnqsmod   =        0.0                         
+fnoimod    =        1.0                         
+tnoimod    =        1.0                         
+tempmod    =        0.0                         
***PROCESS PARAMETERS
+toxe       =        3.932304e-09	
+toxm       =        4.148e-09                   
+dtox       =        0.0                         
+epsrox     =        3.9                         
+xj = 1.5e-07   
+ngate = 1.0e+23   
+ndep = 1.7e+17   
+nsd = 1.0e+20   
+rsh        =        1.0                         
+rshg       =        0.1                         
***BASIC MODEL PARAMETERS
+wint       =        -6.175e-09	   
+lint       =        2.935e-08	   
+vth0 = 0.4190261	
+k1 = 0.47213   
+k2 = -0.0343994   
+k3 = 1.65   
+k3b = 1.6   
+w0 = 1.0e-07   
+dvt0 = 0.07665   
+dvt1 = 0.1252   
+dvt2 = -0.05637   
+dvt0w = 0.0   
+dvt1w = 5300000.0   
+dvt2w = -0.032   
+dsub = 0.56   
+minv = 0.0   
+voffl      =        0.0                         
+lpe0 = 2.3802e-07   
+lpeb = -4.9152e-08   
+vbm = -3.0   
+dvtp0 = 0.0   
+dvtp1 = 0.0   
+phin = 0.0   
+cdsc = 3.8556e-37   
+cdscb = -0.00011484   
+cdscd = 4.7984e-06   
+cit = 1.0e-05   
+voff = -0.21879919	
+nfactor = 0.9609079	   
+eta0 = 0.08   
+etab = -0.07   
+vfb = 0.0   
+u0 = 0.0316328	   
+ua = -1.3007075e-09   
+ub = 2.6647e-18   
+uc = 7.0152e-11   
+ud = 0.0   
+up = 0.0   
+lp = 1.0   
+eu = 1.67   
+vtl = 0.0   
+xn = 0.0   
+vsat = 161140.0   
+a0 = 1.9539352   
+ags = 0.545429   
+a1 = 0.0   
+a2 = 0.38689047   
+b0 = 0.0   
+b1 = 0.0   
+keta = 0.0   
+dwg = -1.33e-08   
+dwb = -1.08e-08   
+pclm = 0.2   
+pdiblc1 = 0.39   
+pdiblc2 = 0.0047977   
+pdiblcb = 0.0   
+drout = 3.4946   
+pscbe1 = 450000000.0   
+pscbe2 = 1.0e-08   
+pvag = 0.0   
+delta = 0.01   
+fprout = 0.0   
+pdits = 1.4427e-15   
+pditsl     =        0.0                         
+pditsd = 0.0   
+lambda     =        0.0                         
+lc         =        0.0                         
***PARAMETERS FOR ASYMMETRIC AND BIAS-DEPENDENT RDS MODEL******
+rdsw = 103.65   
+rsw = 0.0   
+rdw = 0.0   
+rdswmin    =        0.0                         
+rdwmin     =        0.0                         
+rswmin     =        0.0                         
+prwb = 0.0   
+prwg = 0.0   
+wr = 1.0   
***IMPACT IONIZATION CURRENT MODEL PARAMTERS******************
+alpha0 = 8.4345657e-05   
+alpha1 = 0.0   
+beta0 = 17.822982   
***GIDL INDUCED DRAIN LEAKAGE MODEL PARAMETERS*****************
+agidl = 0.0   
+bgidl = 2300000000.0   
+cgidl = 0.5   
+egidl = 0.8   
***GATE DIELECTRIC TUNNELING CURRENT MODEL PARAMETERS**********
+toxref     =        4.148e-09                   
+dlcig = 0.0   
+aigbacc = 1.0   
+bigbacc = 0.0   
+cigbacc = 0.0   
+nigbacc = 1.0   
+aigbinv = 0.35   
+bigbinv = 0.03   
+cigbinv = 0.006   
+eigbinv = 1.1   
+nigbinv = 3.0   
+aigc = 0.43   
+bigc = 0.054   
+cigc = 0.075   
+aigsd = 0.43   
+bigsd = 0.054   
+cigsd = 0.075   
+nigc = 1.0   
+poxedge = 1.0   
+pigcd = 1.0   
+ntox = 1.0   
+vfbsdoff   =        0.0                         
***CHARGE AND CAPACITANCE MODEL PARAMETERS********************
+dlc        =        2.4805e-08                  
+dwc        =        -6.175e-09                  
+xpart      =        0.0                         
+cgso       =        2.228188563e-10             
+cgdo       =        2.228188563e-10             
+cgbo       =        1.0e-14                     
+cgdl = 2.151675e-11   
+cgsl = 2.151675e-11   
+clc = 1.0e-07   
+cle = 0.6   
+cf = 1.0e-14   
+ckappas = 0.6   
+vfbcv = -1.0   
+acde = 0.38008   
+moin = 23.81   
+noff = 3.8661   
+voffcv = -0.16994   
***HIGH-SPEED/RF MODEL PARAMETERS******************************
+xrcrg1     =        12.0                        
+xrcrg2     =        1.0                         
+rbpb       =        50.0                        
+rbpd       =        50.0                        
+rbps       =        50.0                        
+rbdb       =        50.0                        
+rbsb       =        50.0                        
+gbmin      =        1.0e-12                     
***FLICKER AND THERMAL NOISE MODEL PARAMETERS******************
+ef         =        1.2                         
+noia       =        9.0e+41                     
+noib       =        1.0e+27                     
+noic       =        800000000000.0              
+em         =        41000000.0                  
+ntnoi      =        1.0                         
+lintnoi    =        -3.0e-07                    
+af         =        1.0                         
+kf         =        0.0                         
+tnoia      =        25000000.0                  
+tnoib      =        9900000.0                   
+rnoia      =        0.912                       
+rnoib      =        0.26                        
***LAYOUT-DEPENDENT PARASITICS MODEL PARAMETERS****************
+xl         =        0.0                         
+xw         =        0.0                         
+dmcg       =        0.0                         
+dmdg       =        0.0                         
+dmcgt      =        0.0                         
+xgw        =        0.0                         
+xgl        =        0.0                         
+ngcon      =        1.0                         
***ASYMMETRIC SOURCE/DRAIN JUNCTION DIODE MODEL PARAMETERS*****
+jss        =        0.00275                     
+jsws       =        6.0e-10                     
+ijthsfwd   =        0.1                         
+ijthsrev   =        0.1                         
+bvs        =        11.9                        
+xjbvs      =        1.0                         
+pbs        =        0.7477                      
+cjs        =        0.00099678423               
+mjs        =        0.42197                     
+pbsws      =        0.1                         
+cjsws      =        2.7168e-11                  
+mjsws      =        0.001                       
+pbswgs     =        0.79644                     
+cjswgs     =        1.5099e-10                  
+mjswgs     =        0.8                         

***TEMPERATURE DEPENDENCE PARAMETERS***************************
+tnom       =        30.0                        
+kt1 = -0.35364   
+kt2 = -0.034423   
+at = 333080.0   
+ute = -1.0777   
+ua1 = 2.6823e-09   
+ub1 = -2.4433e-18   
+uc1 = -1.9223e-11   
+kt1l = 0.0   
+prt = 0.0   
+tvoff = -0.0004   
+njs        =        1.2928                      
+tpb        =        0.0012287                   
+tcj        =        0.000792                    
+tpbsw      =        0.0                         
+tcjsw      =        1.0e-05                     
+tpbswg     =        0.0                         
+tcjswg     =        0.0                         
+xtis       =        2.0                         
+tvfbsdoff  =        0.0                         
***DW AND DL PARAMETERS****************************************
+ll         =        0.0                         
+wl         =        0.0                         
+lln        =        1.0                         
+wln        =        1.0                         
+lw         =        0.0                         
+ww         =        0.0                         
+lwn        =        1.0                         
+wwn        =        1.0                         
+lwl        =        0.0                         
+wwl        =        0.0                         
+llc        =        0.0                         
+wlc        =        0.0                         
+lwc        =        0.0                         
+wwc        =        0.0                         
+lwlc       =        0.0                         
+wwlc       =        0.0                         
***STRESS PARAMETERS*******************************************
+saref      =        3.0e-06                     
+sbref      =        3.0e-06                     
+kvth0      =        7.9e-09                     
+lkvth0     =        0.0                         
+wkvth0     =        3.0e-07                     
+pkvth0     =        0.0                         
+llodvth    =        0.0                         
+wlodvth    =        1.0                         
+wlod       =        0.0                         
+stk2       =        0.0                         
+lodk2      =        1.0                         
+lodeta0    =        1.0                         
+ku0        =        -2.7e-08                    
+lku0       =        0.0                         
+wku0       =        0.0                         
+pku0       =        0.0                         
+tku0       =        0.0                         
+llodku0    =        0.0                         
+wlodku0    =        1.0                         
+kvsat      =        0.2                         
+steta0     =        0.0                         
***WELL PROXIMITY EFFECT PARAMETERS****************************
******

.model nlowvt.1 nmos
*
***MODEL FLAG PARAMETERS
*
+lmin = 6.0e-06   lmax = 8.0e-06   wmin = 7.0e-06   wmax = 0.0001   
+level      =        54.0                        
+version    =        4.5                         
+binunit    =        2.0                         
+mobmod     =        0.0                         
+capmod     =        2.0                         
+igcmod     =        0.0                         
+igbmod     =        0.0                         
+geomod     =        0.0                         
+diomod     =        1.0                         
+rdsmod     =        0.0                         
+rbodymod   =        1.0                         
+rgatemod   =        0.0                         
+permod     =        1.0                         
+acnqsmod   =        0.0                         
+trnqsmod   =        0.0                         
+fnoimod    =        1.0                         
+tnoimod    =        1.0                         
+tempmod    =        0.0                         
***PROCESS PARAMETERS
+toxe       =        3.932304e-09	
+toxm       =        4.148e-09                   
+dtox       =        0.0                         
+epsrox     =        3.9                         
+xj = 1.5e-07   
+ngate = 1.0e+23   
+ndep = 1.7e+17   
+nsd = 1.0e+20   
+rsh        =        1.0                         
+rshg       =        0.1                         
***BASIC MODEL PARAMETERS
+wint       =        -6.175e-09	   
+lint       =        2.935e-08	   
+vth0 = 0.4190261	
+k1 = 0.47213   
+k2 = -0.0343994   
+k3 = 1.65   
+k3b = 1.6   
+w0 = 1.0e-07   
+dvt0 = 0.07665   
+dvt1 = 0.1252   
+dvt2 = -0.05637   
+dvt0w = 0.0   
+dvt1w = 5300000.0   
+dvt2w = -0.032   
+dsub = 0.56   
+minv = 0.0   
+voffl      =        0.0                         
+lpe0 = 2.3802e-07   
+lpeb = -4.9152e-08   
+vbm = -3.0   
+dvtp0 = 0.0   
+dvtp1 = 0.0   
+phin = 0.0   
+cdsc = 3.8556e-37   
+cdscb = -0.00011484   
+cdscd = 4.7984e-06   
+cit = 1.0e-05   
+voff = -0.21879919	
+nfactor = 0.9609079	   
+eta0 = 0.08   
+etab = -0.07   
+vfb = 0.0   
+u0 = 0.0316328	   
+ua = -1.3007075e-09   
+ub = 2.6647e-18   
+uc = 7.0152e-11   
+ud = 0.0   
+up = 0.0   
+lp = 1.0   
+eu = 1.67   
+vtl = 0.0   
+xn = 0.0   
+vsat = 161140.0   
+a0 = 1.9539352   
+ags = 0.545429   
+a1 = 0.0   
+a2 = 0.38689047   
+b0 = 0.0   
+b1 = 0.0   
+keta = 0.0   
+dwg = -1.33e-08   
+dwb = -1.08e-08   
+pclm = 0.2   
+pdiblc1 = 0.39   
+pdiblc2 = 0.0047977   
+pdiblcb = 0.0   
+drout = 3.4946   
+pscbe1 = 450000000.0   
+pscbe2 = 1.0e-08   
+pvag = 0.0   
+delta = 0.01   
+fprout = 0.0   
+pdits = 1.4427e-15   
+pditsl     =        0.0                         
+pditsd = 0.0   
+lambda     =        0.0                         
+lc         =        0.0                         
***PARAMETERS FOR ASYMMETRIC AND BIAS-DEPENDENT RDS MODEL******
+rdsw = 103.65   
+rsw = 0.0   
+rdw = 0.0   
+rdswmin    =        0.0                         
+rdwmin     =        0.0                         
+rswmin     =        0.0                         
+prwb = 0.0   
+prwg = 0.0   
+wr = 1.0   
***IMPACT IONIZATION CURRENT MODEL PARAMTERS******************
+alpha0 = 8.4345657e-05   
+alpha1 = 0.0   
+beta0 = 17.822982   
***GIDL INDUCED DRAIN LEAKAGE MODEL PARAMETERS*****************
+agidl = 0.0   
+bgidl = 2300000000.0   
+cgidl = 0.5   
+egidl = 0.8   
***GATE DIELECTRIC TUNNELING CURRENT MODEL PARAMETERS**********
+toxref     =        4.148e-09                   
+dlcig = 0.0   
+aigbacc = 1.0   
+bigbacc = 0.0   
+cigbacc = 0.0   
+nigbacc = 1.0   
+aigbinv = 0.35   
+bigbinv = 0.03   
+cigbinv = 0.006   
+eigbinv = 1.1   
+nigbinv = 3.0   
+aigc = 0.43   
+bigc = 0.054   
+cigc = 0.075   
+aigsd = 0.43   
+bigsd = 0.054   
+cigsd = 0.075   
+nigc = 1.0   
+poxedge = 1.0   
+pigcd = 1.0   
+ntox = 1.0   
+vfbsdoff   =        0.0                         
***CHARGE AND CAPACITANCE MODEL PARAMETERS********************
+dlc        =        2.4805e-08                  
+dwc        =        -6.175e-09                  
+xpart      =        0.0                         
+cgso       =        2.228188563e-10             
+cgdo       =        2.228188563e-10             
+cgbo       =        1.0e-14                     
+cgdl = 2.151675e-11   
+cgsl = 2.151675e-11   
+clc = 1.0e-07   
+cle = 0.6   
+cf = 1.0e-14   
+ckappas = 0.6   
+vfbcv = -1.0   
+acde = 0.38008   
+moin = 23.81   
+noff = 3.8661   
+voffcv = -0.16994   
***HIGH-SPEED/RF MODEL PARAMETERS******************************
+xrcrg1     =        12.0                        
+xrcrg2     =        1.0                         
+rbpb       =        50.0                        
+rbpd       =        50.0                        
+rbps       =        50.0                        
+rbdb       =        50.0                        
+rbsb       =        50.0                        
+gbmin      =        1.0e-12                     
***FLICKER AND THERMAL NOISE MODEL PARAMETERS******************
+ef         =        1.2                         
+noia       =        9.0e+41                     
+noib       =        1.0e+27                     
+noic       =        800000000000.0              
+em         =        41000000.0                  
+ntnoi      =        1.0                         
+lintnoi    =        -3.0e-07                    
+af         =        1.0                         
+kf         =        0.0                         
+tnoia      =        25000000.0                  
+tnoib      =        9900000.0                   
+rnoia      =        0.912                       
+rnoib      =        0.26                        
***LAYOUT-DEPENDENT PARASITICS MODEL PARAMETERS****************
+xl         =        0.0                         
+xw         =        0.0                         
+dmcg       =        0.0                         
+dmdg       =        0.0                         
+dmcgt      =        0.0                         
+xgw        =        0.0                         
+xgl        =        0.0                         
+ngcon      =        1.0                         
***ASYMMETRIC SOURCE/DRAIN JUNCTION DIODE MODEL PARAMETERS*****
+jss        =        0.00275                     
+jsws       =        6.0e-10                     
+ijthsfwd   =        0.1                         
+ijthsrev   =        0.1                         
+bvs        =        11.9                        
+xjbvs      =        1.0                         
+pbs        =        0.7477                      
+cjs        =        0.00099678423               
+mjs        =        0.42197                     
+pbsws      =        0.1                         
+cjsws      =        2.7168e-11                  
+mjsws      =        0.001                       
+pbswgs     =        0.79644                     
+cjswgs     =        1.5099e-10                  
+mjswgs     =        0.8                         

***TEMPERATURE DEPENDENCE PARAMETERS***************************
+tnom       =        30.0                        
+kt1 = -0.35364   
+kt2 = -0.034423   
+at = 333080.0   
+ute = -1.0777   
+ua1 = 2.6823e-09   
+ub1 = -2.4433e-18   
+uc1 = -1.9223e-11   
+kt1l = 0.0   
+prt = 0.0   
+tvoff = -0.0004   
+njs        =        1.2928                      
+tpb        =        0.0012287                   
+tcj        =        0.000792                    
+tpbsw      =        0.0                         
+tcjsw      =        1.0e-05                     
+tpbswg     =        0.0                         
+tcjswg     =        0.0                         
+xtis       =        2.0                         
+tvfbsdoff  =        0.0                         
***DW AND DL PARAMETERS****************************************
+ll         =        0.0                         
+wl         =        0.0                         
+lln        =        1.0                         
+wln        =        1.0                         
+lw         =        0.0                         
+ww         =        0.0                         
+lwn        =        1.0                         
+wwn        =        1.0                         
+lwl        =        0.0                         
+wwl        =        0.0                         
+llc        =        0.0                         
+wlc        =        0.0                         
+lwc        =        0.0                         
+wwc        =        0.0                         
+lwlc       =        0.0                         
+wwlc       =        0.0                         
***STRESS PARAMETERS*******************************************
+saref      =        3.0e-06                     
+sbref      =        3.0e-06                     
+kvth0      =        7.9e-09                     
+lkvth0     =        0.0                         
+wkvth0     =        3.0e-07                     
+pkvth0     =        0.0                         
+llodvth    =        0.0                         
+wlodvth    =        1.0                         
+wlod       =        0.0                         
+stk2       =        0.0                         
+lodk2      =        1.0                         
+lodeta0    =        1.0                         
+ku0        =        -2.7e-08                    
+lku0       =        0.0                         
+wku0       =        0.0                         
+pku0       =        0.0                         
+tku0       =        0.0                         
+llodku0    =        0.0                         
+wlodku0    =        1.0                         
+kvsat      =        0.2                         
+steta0     =        0.0                         
***WELL PROXIMITY EFFECT PARAMETERS****************************
******

.model nlowvt.2 nmos
*
***MODEL FLAG PARAMETERS
*
+lmin = 4.0e-06   lmax = 6.0e-06   wmin = 7.0e-06   wmax = 0.0001   
+level      =        54.0                        
+version    =        4.5                         
+binunit    =        2.0                         
+mobmod     =        0.0                         
+capmod     =        2.0                         
+igcmod     =        0.0                         
+igbmod     =        0.0                         
+geomod     =        0.0                         
+diomod     =        1.0                         
+rdsmod     =        0.0                         
+rbodymod   =        1.0                         
+rgatemod   =        0.0                         
+permod     =        1.0                         
+acnqsmod   =        0.0                         
+trnqsmod   =        0.0                         
+fnoimod    =        1.0                         
+tnoimod    =        1.0                         
+tempmod    =        0.0                         
***PROCESS PARAMETERS
+toxe       =        3.932304e-09	
+toxm       =        4.148e-09                   
+dtox       =        0.0                         
+epsrox     =        3.9                         
+xj = 1.5e-07   
+ngate = 1.0e+23   
+ndep = 1.7e+17   
+nsd = 1.0e+20   
+rsh        =        1.0                         
+rshg       =        0.1                         
***BASIC MODEL PARAMETERS
+wint       =        -6.175e-09	   
+lint       =        2.935e-08	   
+vth0 = 3.893282131e-01	
+k1 = 5.499153381e-01   lk1 = -4.621460294e-07   wk1 = 4.470144864e-07   pk1 = -2.655847168e-12   
+k2 = -6.214128764e-02   lk2 = 1.648228771e-07   wk2 = -1.424696543e-07   pk2 = 8.464549573e-13   
+k3 = 1.65   
+k3b = 1.6   
+w0 = 1.0e-07   
+dvt0 = 0.07665   
+dvt1 = 0.1252   
+dvt2 = -0.05637   
+dvt0w = 0.0   
+dvt1w = 5300000.0   
+dvt2w = -0.032   
+dsub = 1.147085650e+00   ldsub = -3.488051970e-06   wdsub = -4.116850056e-06   pdsub = 2.445944124e-11   
+minv = 0.0   
+voffl      =        0.0                         
+lpe0 = 2.3802e-07   
+lpeb = -4.9152e-08   
+vbm = -3.0   
+dvtp0 = 0.0   
+dvtp1 = 0.0   
+phin = 0.0   
+cdsc = 3.8556e-37   
+cdscb = -0.00011484   
+cdscd = 4.7984e-06   
+cit = 1.0e-05   
+voff = -2.703901959e-01	
+nfactor = 7.768863297e-01	   lnfactor = 1.093327356e-06   wnfactor = -2.344469122e-07   pnfactor = 1.392919439e-12   
+eta0 = 2.484795950e-01   leta0 = -1.000987818e-06   weta0 = -1.181437888e-06   peta0 = 7.019276923e-12   
+etab = -2.172871931e-01   letab = 8.750774004e-07   wetab = 1.032829349e-06   petab = -6.136349008e-12   
+vfb = 0.0   
+u0 = 2.734894560e-02	   lu0 = 2.545166418e-08   wu0 = 2.508910415e-08   pu0 = -1.490618945e-13   
+ua = -1.457719589e-09   lua = 9.328559236e-16   wua = 6.036529396e-16   pua = -3.586483210e-21   
+ub = 2.577358878e-18   lub = 5.189198073e-25   wub = 6.742369431e-25   pub = -4.005843950e-30   
+uc = 6.427590472e-11   luc = 3.491164490e-17   wuc = 3.721157825e-17   puc = -2.210851499e-22   
+ud = 0.0   
+up = 0.0   
+lp = 1.0   
+eu = 1.67   
+vtl = 0.0   
+xn = 0.0   
+vsat = 4.183841719e+05   lvsat = -1.528364798e+00   wvsat = -2.934409357e+00   pvsat = 1.743420631e-05   
+a0 = 1.875159154e+00   la0 = 4.680321212e-07   wa0 = 9.993909411e-07   pa0 = -5.937681398e-12   
+ags = -1.525813932e+00   lags = 1.230587563e-05   wags = 1.427607933e-05   pags = -8.481847014e-11   
+a1 = 0.0   
+a2 = 0.38689047   
+b0 = 0.0   
+b1 = 0.0   
+keta = 3.910633920e-01   lketa = -2.323424931e-06   wketa = -2.742273377e-06   pketa = 1.629266881e-11   
+dwg = -1.33e-08   
+dwb = -1.08e-08   
+pclm = 1.166632367e-01   lpclm = 4.951287120e-07   wpclm = 2.402316482e-06   ppclm = -1.427288292e-11   
+pdiblc1 = 0.39   
+pdiblc2 = -3.188325022e-03   lpdiblc2 = 4.744737046e-08   wpdiblc2 = 3.127466711e-08   ppdiblc2 = -1.858121797e-13   
+pdiblcb = 0.0   
+drout = 3.4946   
+pscbe1 = 450000000.0   
+pscbe2 = 1.0e-08   
+pvag = 0.0   
+delta = 0.01   
+fprout = 0.0   
+pdits = 1.4427e-15   
+pditsl     =        0.0                         
+pditsd = 0.0   
+lambda     =        0.0                         
+lc         =        0.0                         
***PARAMETERS FOR ASYMMETRIC AND BIAS-DEPENDENT RDS MODEL******
+rdsw = 103.65   
+rsw = 0.0   
+rdw = 0.0   
+rdswmin    =        0.0                         
+rdwmin     =        0.0                         
+rswmin     =        0.0                         
+prwb = 0.0   
+prwg = 0.0   
+wr = 1.0   
***IMPACT IONIZATION CURRENT MODEL PARAMTERS******************
+alpha0 = -1.097496608e-05   lalpha0 = 5.663284179e-10   walpha0 = 1.367045228e-09   palpha0 = -8.122025812e-15   
+alpha1 = 0.0   
+beta0 = 1.041969368e+01   lbeta0 = 4.398515691e-05   wbeta0 = 5.580620688e-05   pbeta0 = -3.315614169e-10   
***GIDL INDUCED DRAIN LEAKAGE MODEL PARAMETERS*****************
+agidl = 0.0   
+bgidl = 2300000000.0   
+cgidl = 0.5   
+egidl = 0.8   
***GATE DIELECTRIC TUNNELING CURRENT MODEL PARAMETERS**********
+toxref     =        4.148e-09                   
+dlcig = 0.0   
+aigbacc = 1.0   
+bigbacc = 0.0   
+cigbacc = 0.0   
+nigbacc = 1.0   
+aigbinv = 0.35   
+bigbinv = 0.03   
+cigbinv = 0.006   
+eigbinv = 1.1   
+nigbinv = 3.0   
+aigc = 0.43   
+bigc = 0.054   
+cigc = 0.075   
+aigsd = 0.43   
+bigsd = 0.054   
+cigsd = 0.075   
+nigc = 1.0   
+poxedge = 1.0   
+pigcd = 1.0   
+ntox = 1.0   
+vfbsdoff   =        0.0                         
***CHARGE AND CAPACITANCE MODEL PARAMETERS********************
+dlc        =        2.4805e-08                  
+dwc        =        -6.175e-09                  
+xpart      =        0.0                         
+cgso       =        2.228188563e-10             
+cgdo       =        2.228188563e-10             
+cgbo       =        1.0e-14                     
+cgdl = 2.151675e-11   
+cgsl = 2.151675e-11   
+clc = 1.0e-07   
+cle = 0.6   
+cf = 1.0e-14   
+ckappas = 0.6   
+vfbcv = -1.0   
+acde = 0.38008   
+moin = 23.81   
+noff = 3.8661   
+voffcv = -0.16994   
***HIGH-SPEED/RF MODEL PARAMETERS******************************
+xrcrg1     =        12.0                        
+xrcrg2     =        1.0                         
+rbpb       =        50.0                        
+rbpd       =        50.0                        
+rbps       =        50.0                        
+rbdb       =        50.0                        
+rbsb       =        50.0                        
+gbmin      =        1.0e-12                     
***FLICKER AND THERMAL NOISE MODEL PARAMETERS******************
+ef         =        1.2                         
+noia       =        9.0e+41                     
+noib       =        1.0e+27                     
+noic       =        800000000000.0              
+em         =        41000000.0                  
+ntnoi      =        1.0                         
+lintnoi    =        -3.0e-07                    
+af         =        1.0                         
+kf         =        0.0                         
+tnoia      =        25000000.0                  
+tnoib      =        9900000.0                   
+rnoia      =        0.912                       
+rnoib      =        0.26                        
***LAYOUT-DEPENDENT PARASITICS MODEL PARAMETERS****************
+xl         =        0.0                         
+xw         =        0.0                         
+dmcg       =        0.0                         
+dmdg       =        0.0                         
+dmcgt      =        0.0                         
+xgw        =        0.0                         
+xgl        =        0.0                         
+ngcon      =        1.0                         
***ASYMMETRIC SOURCE/DRAIN JUNCTION DIODE MODEL PARAMETERS*****
+jss        =        0.00275                     
+jsws       =        6.0e-10                     
+ijthsfwd   =        0.1                         
+ijthsrev   =        0.1                         
+bvs        =        11.9                        
+xjbvs      =        1.0                         
+pbs        =        0.7477                      
+cjs        =        0.00099678423               
+mjs        =        0.42197                     
+pbsws      =        0.1                         
+cjsws      =        2.7168e-11                  
+mjsws      =        0.001                       
+pbswgs     =        0.79644                     
+cjswgs     =        1.5099e-10                  
+mjswgs     =        0.8                         

***TEMPERATURE DEPENDENCE PARAMETERS***************************
+tnom       =        30.0                        
+kt1 = -5.507841426e-01   lkt1 = 1.171292494e-06   wkt1 = 5.944341574e-09   pkt1 = -3.531711660e-14   
+kt2 = -4.456721080e-02   lkt2 = 6.026979962e-08   wkt2 = 7.482439957e-08   pkt2 = -4.445542051e-13   
+at = 8.907000285e+05   lat = -3.312987875e+00   wat = -2.484288952e-01   pat = 1.475990595e-06   
+ute = -9.015014732e-01   lute = -1.046848307e-06   wute = 4.116456540e-07   pute = -2.445710324e-12   
+ua1 = 1.510864356e-09   lua1 = 6.959850589e-15   wua1 = 4.856527066e-15   pua1 = -2.885408426e-20   
+ub1 = 2.382142510e-19   lub1 = -1.593168062e-23   wub1 = -7.336803588e-24   pub1 = 4.359015116e-29   
+uc1 = 1.252588701e-11   luc1 = -1.886296624e-16   wuc1 = -1.154688351e-16   puc1 = 6.860349899e-22   
+kt1l = 0.0   
+prt = 0.0   
+tvoff = -5.158965998e-03   ltvoff = 2.827444469e-08   wtvoff = 2.940962994e-09   ptvoff = -1.747314344e-14   
+njs        =        1.2928                      
+tpb        =        0.0012287                   
+tcj        =        0.000792                    
+tpbsw      =        0.0                         
+tcjsw      =        1.0e-05                     
+tpbswg     =        0.0                         
+tcjswg     =        0.0                         
+xtis       =        2.0                         
+tvfbsdoff  =        0.0                         
***DW AND DL PARAMETERS****************************************
+ll         =        0.0                         
+wl         =        0.0                         