**********************************************************************************
.subckt nsrf_1p65p15m2_b d g s b m=1
.model nshort_rf_base_m2_b.0 nmos
*
*DC IV MOS PARAMETERS
*
+lmin = 1.45e-07  lmax = 1.55e-07  wmin = 1.645e-06  wmax = 1.655e-06
+level      =        54                          
+tnom       =        30                          
+version    =        4.5                       
+toxm       =        4.148e-09                   
+xj         =        1.5e-07                     
+lln        =        1                           
+lwn        =        1                           
+wln        =        1                           
+wwn        =        1                           
+lint       =        '-2.939e-08+nshort_rf_base_b_lint_diff'	   
+ll         =        0                           
+lw         =        0                           
+lwl        =        0                           
+wint       =        '9.181e-09+nshort_rf_base_b_wint_diff'	   
+wl         =        0                           
+ww         =        0                           
+wwl        =        0                           
+xl         =        0                           
+xw         =        0                           
+mobmod     =        0                           
+binunit    =        2                           
+dwg        =        0                           
+dwb        =        0                           
*NEW BSIM4 Parameters(Model Selectors)
+igcmod     =        0                           
+igbmod     =        0                           
+rgatemod   =        3                           
+rbodymod   =        1                           
+trnqsmod   =        0                           
+acnqsmod   =        0                           
+fnoimod    =        1                           
+tnoimod    =        1                           
+permod     =        1                           
+geomod     =        0                           
+rdsmod     =        1                           
+tempmod    =        0                           
*******
*NEW BSIM4 Parameters(4.4 Version)
+lintnoi    =        -1.0e-07                           
+vfbsdoff   =        0                           
+lambda     =        0                           
+vtl        =        2e+05                       
+lc         =        5e-09                       
+xn         =        3                           
+rnoia      =        0.90
+rnoib      =        0.36
+tnoia      =        2.7e7
+tnoib      =        9.9e6

*NEW BSIM4 Parameters(Process Parameters)
+epsrox     =        3.9                         
+toxe       =        '4.148e-09*nshort_rf_base_b_toxe_mult'	
+dtox       =        0                           
+ndep       =        3.1e+17                     
+nsd        =        1e+20                       
+rshg       =        '49.2+nshort_rf_base_b_rshg_diff'   
****
+rsh        =        1                           
*
* THRESHOLD VOLTAGE PARAMETERS
*
+vth0       =        '0.633+nshort_rf_base_m2_b_vth0_diff_0'	
+k1         =        0.5415                      
+k2         =        '-0.07197+nshort_rf_base_m2_b_k2_diff_0'   
+k3         =        3                           
+dvt0       =        0                           
+dvt1       =        0.53                        
+dvt2       =        -0.032                      
+dvt0w      =        -0.2864                     
+dvt1w      =        1.671e+06                   
+dvt2w      =        -0.3571                     
+w0         =        0                           
+k3b        =        1.48                        
*NEW BSIM4 Parameters for Level 54
+phin       =        0                           
+lpe0       =        1.342e-07                   
+lpeb       =        -7.224e-08                  
+vbm        =        -3                          
+dvtp0      =        0                           
+dvtp1      =        0                           
*
* MOBILITY PARAMETERS
*
+vsat       =        '1.644e+05+nshort_rf_base_m2_b_vsat_diff_0'   
+ua         =        '-1.96e-09+nshort_rf_base_m2_b_ua_diff_0'   
+ub         =        '2.15e-18+nshort_rf_base_m2_b_ub_diff_0'   
+uc         =        7.917e-11                   
+rdsw       =        '98.95+nshort_rf_base_m2_b_rdsw_diff_0'   
+prwb       =        0.008                       
+prwg       =        0                           
+wr         =        1                           
+u0         =        '0.036+nshort_rf_base_m2_b_u0_diff_0'   
+a0         =        '1.471+nshort_rf_base_m2_b_a0_diff_0'   
+keta       =        0.1378                      
+a1         =        0                           
+a2         =        0.4239                      
+ags        =        '0.5074+nshort_rf_base_m2_b_ags_diff_0'   
+b0         =        '-1.502e-07+nshort_rf_base_m2_b_b0_diff_0'   
+b1         =        '1.902e-09+nshort_rf_base_m2_b_b1_diff_0'   
*NEW BSIM4 Parameters(Mobility Parameters)
+eu         =        1.67                        
+rdswmin    =        0                           
+rdw        =        98.95                       
+rdwmin     =        0                           
+rsw        =        98.95                       
+rswmin     =        0                           
*****
*
* SUBTHRESHOLD CURRENT PARAMETERS
*
+voff       =        '-0.206+nshort_rf_base_m2_b_voff_diff_0'	
+nfactor    =        '2.808+nshort_rf_base_m2_b_nfactor_diff_0'	   
+up         =        0                           
+ud         =        0                           
+lp         =        1                           
+tvfbsdoff  =        0                           
+tvoff      =        0                           
+cit        =        0                           
+cdsc       =        0                           
+cdscb      =        0                           
+cdscd      =        0                           
+eta0       =        0.3121                      
+etab       =        0.0001546                   
+dsub       =        0.4657                      
*NEW BSIM4 Parameters(Sub-threshold parameters)
+voffl      =        5.82e-09                    
+minv       =        0                           
*****
*
* ROUT PARAMETERS
*
+pclm       =        0.1986                      
+pdiblc1    =        0.2481                      
+pdiblc2    =        0                           
+pdiblcb    =        -1                          
+drout      =        0.2457                      
+pscbe1     =        3.295e+08                   
+pscbe2     =        2e-06                       
+pvag       =        0                           
+delta      =        0.03202                     
+alpha0     =        1.21e-07                    
+alpha1     =        0.8767                      
+beta0      =        14.77                       
*NEW BSIM4 Parameters(ROUT Parameters)
+fprout     =        0                           
+pdits      =        0                           
+pditsl     =        0                           
+pditsd     =        0                           
****
*NEW BSIM4 Parameters(GATE INDUCED DRAIN LEAKAGE MODEL PARAMTERS)
+agidl      =        0                           
+bgidl      =        2.3e+09                     
+cgidl      =        0.5                         
+egidl      =        0.8                         
****
*NEW BSIM4 Parameters(Gate Leakage Current Parameters)
+aigbacc    =        1                           
+bigbacc    =        0                           
+cigbacc    =        0                           
+nigbacc    =        0                           
+aigbinv    =        0.35                        
+bigbinv    =        0.03                        
+cigbinv    =        0.006                       
+eigbinv    =        1.1                         
+nigbinv    =        0                           
+aigc       =        0.43                        
+bigc       =        0.054                       
+cigc       =        0.075                       
+nigc       =        0                           
+aigsd      =        0.43                        
+bigsd      =        0.054                       
+cigsd      =        0.075                       
+dlcig      =        0                           
+poxedge    =        1                           
+pigcd      =        1                           
+ntox       =        1                           
+toxref     =        4.148e-09                   
*****
*
* TEMPERATURE EFFECTS PARAMETERS
*
+kt1        =        '-0.290+nshort_rf_base_m2_b_kt1_diff_0'   
+kt2        =        -0.02437                    
+at         =        5.978e+04                   
+ute        =        -1.681                      
+ua1        =        6.012e-10                   
+ub1        =        -4.98e-19                   
+uc1        =        1.09e-12                    
+kt1l       =        0                           
+prt        =        0                           
*NEW BSIM4 Parameters(HIGH SPEED RF MODEL PARAMETERS)
+xrcrg1     =        10                          
+xrcrg2     =        2                           
+rbpb       =        '900*nshort_rf_base_b_rbpb_mult'   
+rbpd       =        0.001                       
+rbps       =        0.001                       
+rbdb       =        1e+05                       
+rbsb       =        1e+05                       
+gbmin      =        1e-12                       
****
*NEW BSIM4 Parameters(FLICKER and THERMAL NOISE PARAMETERS)
+noia       =        2.5e+42               
+noib       =        0.0               
+noic       =        0.0              
+em         =        4.1e+07                     
+af         =        1                           
+ef         =        0.84                   
+kf         =        0                           
+ntnoi      =        1                           
*****
*NEW BSIM4 Parameters(LAYOUT DEPENDENT PARASITIC MODEL PARAMETERS)
+dmcg       =        0                           
+dmcgt      =        0                           
+dmdg       =        0                           
+xgw        =        '7.7e-07+nshort_rf_base_b_xgw_diff'
+ngcon      =        2                           
****
*
*DIODE DC IV PARAMTERS
*
*NEW BSIM4 Parameters(DIODE DC IV parameters)
+diomod     =        1                           
+njs        =        1.293                       
+jss        =        0.00275                     
+jsws       =        6e-10                       
+xtis       =        2                           
+bvs        =        11.9                        
+xjbvs      =        1                           
+ijthsrev   =        0.1                         
+ijthsfwd   =        0.1                         
*
* DIODE and FET CAPACITANCE PARAMETERS
*
+tpb        =        0.001229                    
+tpbsw      =        0                           
+tpbswg     =        0                           
+tcj        =        0.000792                    
+tcjsw      =        1e-05                       
+tcjswg     =        0                           
+cgdo       =        '3.659e-10*nshort_rf_base_b_overlap_mult'   
+cgso       =        '3.84e-10*nshort_rf_base_b_overlap_mult'   
+cgbo       =        0                           
+capmod     =        2                           
+xpart      =        0                           
+cgsl       =        '1e-10*nshort_rf_base_b_overlap_mult'   
+cgdl       =        '6e-11*nshort_rf_base_b_overlap_mult'   
+cf         =        1e-11                       
+clc        =        1.2e-08                     
+cle        =        1.9                         
+dlc        =        '2.58e-08+nshort_rf_base_b_dlc_diff+nshort_rf_base_dlc_rotweak'   
+dwc        =        '0+nshort_rf_base_b_dwc_diff'   
+vfbcv      =        -1                          
+acde       =        0.3801                      
+moin       =        23.81                       
+noff       =        1                           
+voffcv     =        -0.06                       
+ngate      =        1e+23                       
+lwc        =        0                           
+llc        =        0                           
+lwlc       =        0                           
+wlc        =        0                           
+wwc        =        0                           
+wwlc       =        0                           
*NEW BSIM4 Parameters(FET and DIODE capacitance parameters)
+ckappas    =        0.6                         
+cjs        =        '0.0024*nshort_rf_base_b_ajunction_mult'   
+mjs        =        0.322                       
+pbs        =        0.9877                      
+cjsws      =        '2.013e-10*nshort_rf_base_b_pjunction_mult'   
+mjsws      =        0.001                       
+pbsws      =        0.4                         
+cjswgs     =        '4.21e-10*nshort_rf_base_b_pjunction_mult'   
+mjswgs     =        0.1                         
+pbswgs     =        0.9064                      
******

* BSIMTran Version 0.1.24, Created on 4-26-2002
* Username: hai
* Command Line: /proj/tlib/s8dia/config/cydir/bin/lnx86/bsimtran nshort_bsim4_RF.rf nmos -p -nnshort_rf_base nshort_1p65xp18m2x4.pm ns1p65xp18m2x4_bsimtranoutput.pm 
* Working Directory: /home/hai/models/s8/s8dia/models.3.2/nshort/combined/beta1
* Time: Tue Dec 11 11:32:05 2007
* Rule File:  nshort_bsim4_RF.rf
* Output File:  ns1p65xp18m2x4_bsimtranoutput.pm
* Input Files:
* (1) nshort_1p65xp18m2x4.pm
*copyright, Cypress Semiconductor, 2002
*BSIM3.V3 NMOS Model

.model nshort_rf_base_m2_b.1 nmos
*
*DC IV MOS PARAMETERS
*
+lmin = 1.75e-07  lmax = 1.85e-07  wmin = 1.645e-06  wmax = 1.655e-06
+level      =        54                          
+tnom       =        30                          
+version    =        4.5                         
+toxm       =        4.148e-09                   
+xj         =        1.5e-07                     
+lln        =        1                           
+lwn        =        1                           
+wln        =        1                           
+wwn        =        1                           
+lint       =        '-5.408e-08+nshort_rf_base_b_lint_diff'	   
+ll         =        0                           
+lw         =        0                           
+lwl        =        0                           
+wint       =        '9.181e-09+nshort_rf_base_b_wint_diff'	   
+wl         =        0                           
+ww         =        0                           
+wwl        =        0                           
+xl         =        0                           
+xw         =        0                           
+mobmod     =        0                           
+binunit    =        2                           
+dwg        =        0                           
+dwb        =        0                           
*NEW BSIM4 Parameters(Model Selectors)
+igcmod     =        0                           
+igbmod     =        0                           
+rgatemod   =        3                           
+rbodymod   =        1                           
+trnqsmod   =        0                           
+acnqsmod   =        0                           
+fnoimod    =        1                           
+tnoimod    =        1                           
+permod     =        1                           
+geomod     =        0                           
+rdsmod     =        1                           
+tempmod    =        0                           
*******
*NEW BSIM4 Parameters(4.4 Version)
+lintnoi    =        -1.0e-07                           
+vfbsdoff   =        0                           
+lambda     =        0                           
+vtl        =        2e+05                       
+lc         =        5e-09                       
+xn         =        3                           
+rnoia      =        0.90
+rnoib      =        0.36
+tnoia      =        2.7e7
+tnoib      =        9.9e6
*NEW BSIM4 Parameters(Process Parameters)
+epsrox     =        3.9                         
+toxe       =        '4.148e-09*nshort_rf_base_b_toxe_mult'	
+dtox       =        0                           
+ndep       =        3.1e+17                     
+nsd        =        1e+20                       
+rshg       =        '49.2+nshort_rf_base_b_rshg_diff'   
****
+rsh        =        1                           
*
* THRESHOLD VOLTAGE PARAMETERS
*
+vth0       =        '0.6345+nshort_rf_base_m2_b_vth0_diff_1'	
+k1         =        0.5415                      
+k2         =        '-0.07197+nshort_rf_base_m2_b_k2_diff_1'   
+k3         =        3                           
+dvt0       =        0                           
+dvt1       =        0.53                        
+dvt2       =        -0.032                      
+dvt0w      =        -0.2864                     
+dvt1w      =        1.671e+06                   
+dvt2w      =        -0.3571                     
+w0         =        0                           
+k3b        =        1.48                        
*NEW BSIM4 Parameters for Level 54
+phin       =        0                           
+lpe0       =        1.342e-07                   
+lpeb       =        -7.224e-08                  
+vbm        =        -3                          
+dvtp0      =        0                           
+dvtp1      =        0                           
*
* MOBILITY PARAMETERS
*
+vsat       =        '1.644e+05+nshort_rf_base_m2_b_vsat_diff_1'   
+ua         =        '-1.985e-09+nshort_rf_base_m2_b_ua_diff_1'   
+ub         =        '2.161e-18+nshort_rf_base_m2_b_ub_diff_1'   
+uc         =        7.917e-11                   
+rdsw       =        '98.95+nshort_rf_base_m2_b_rdsw_diff_1'   
+prwb       =        0.008                       
+prwg       =        0                           
+wr         =        1                           
+u0         =        '0.037+nshort_rf_base_m2_b_u0_diff_1'   
+a0         =        '1.471+nshort_rf_base_m2_b_a0_diff_1'   
+keta       =        0.1378                      
+a1         =        0                           
+a2         =        0.4239                      
+ags        =        '0.5074+nshort_rf_base_m2_b_ags_diff_1'   
+b0         =        '-1.502e-07+nshort_rf_base_m2_b_b0_diff_1'   
+b1         =        '1.902e-09+nshort_rf_base_m2_b_b1_diff_1'   
*NEW BSIM4 Parameters(Mobility Parameters)
+eu         =        1.67                        
+rdswmin    =        0                           
+rdw        =        98.95                       
+rdwmin     =        0                           
+rsw        =        98.95                       
+rswmin     =        0                           
*****
*
* SUBTHRESHOLD CURRENT PARAMETERS
*
+voff       =        '-0.1854+nshort_rf_base_m2_b_voff_diff_1'	
+nfactor    =        '1.629+nshort_rf_base_m2_b_nfactor_diff_1'	   
+up         =        0                           
+ud         =        0                           
+lp         =        1                           
+tvfbsdoff  =        0                           
+tvoff      =        0                           
+cit        =        0                           
+cdsc       =        0                           
+cdscb      =        0                           
+cdscd      =        0                           
+eta0       =        0.3121                      
+etab       =        0.0001546                   
+dsub       =        0.4657                      
*NEW BSIM4 Parameters(Sub-threshold parameters)
+voffl      =        5.82e-09                    
+minv       =        0                           
*****
*
* ROUT PARAMETERS
*
+pclm       =        0.1986                      
+pdiblc1    =        0.2293                      
+pdiblc2    =        0.016                       
+pdiblcb    =        -1                          
+drout      =        0.2457                      
+pscbe1     =        3.295e+08                   
+pscbe2     =        2e-06                       
+pvag       =        0                           
+delta      =        0.02336                     
+alpha0     =        1.21e-07                    
+alpha1     =        0.8767                      
+beta0      =        14.77                       
*NEW BSIM4 Parameters(ROUT Parameters)
+fprout     =        0                           
+pdits      =        0                           
+pditsl     =        0                           
+pditsd     =        0                           
****
*NEW BSIM4 Parameters(GATE INDUCED DRAIN LEAKAGE MODEL PARAMTERS)
+agidl      =        0                           
+bgidl      =        2.3e+09                     
+cgidl      =        0.5                         
+egidl      =        0.8                         
****
*NEW BSIM4 Parameters(Gate Leakage Current Parameters)
+aigbacc    =        1                           
+bigbacc    =        0                           
+cigbacc    =        0                           
+nigbacc    =        0                           
+aigbinv    =        0.35                        
+bigbinv    =        0.03                        
+cigbinv    =        0.006                       
+eigbinv    =        1.1                         
+nigbinv    =        0                           
+aigc       =        0.43                        
+bigc       =        0.054                       
+cigc       =        0.075                       
+nigc       =        0                           
+aigsd      =        0.43                        
+bigsd      =        0.054                       
+cigsd      =        0.075                       
+dlcig      =        0                           
+poxedge    =        1                           
+pigcd      =        1                           
+ntox       =        1                           
+toxref     =        4.148e-09                   
*****
*
* TEMPERATURE EFFECTS PARAMETERS
*
+kt1        =        '-0.2779+nshort_rf_base_m2_b_kt1_diff_1'   
+kt2        =        -0.02437                    
+at         =        6.122e+04                   
+ute        =        -1.5633                     
+ua1        =        6.012e-10                   
+ub1        =        -6.52e-19                   
+uc1        =        1.09e-12                    
+kt1l       =        0                           
+prt        =        0                           
*NEW BSIM4 Parameters(HIGH SPEED RF MODEL PARAMETERS)
+xrcrg1     =        10                          
+xrcrg2     =        2                           
+rbpb       =        '900*nshort_rf_base_b_rbpb_mult'   
+rbpd       =        0.001                       
+rbps       =        0.001                       
+rbdb       =        1e+05                       
+rbsb       =        1e+05                       
+gbmin      =        1e-12                       
****
*NEW BSIM4 Parameters(FLICKER and THERMAL NOISE PARAMETERS)
+noia       =        2.5e+42               
+noib       =        0.0               
+noic       =        0.0              
+em         =        4.1e+07                     
+af         =        1                           
+ef         =        0.84                   
+kf         =        0                           
+ntnoi      =        1                           
*****
*NEW BSIM4 Parameters(LAYOUT DEPENDENT PARASITIC MODEL PARAMETERS)
+dmcg       =        0                           
+dmcgt      =        0                           
+dmdg       =        0                           
+xgw        =        '1.12e-06+nshort_rf_base_b_xgw_diff'
+ngcon      =        2                           
****
*
*DIODE DC IV PARAMTERS
*
*NEW BSIM4 Parameters(DIODE DC IV parameters)
+diomod     =        1                           
+njs        =        1.293                       
+jss        =        0.00275                     
+jsws       =        6e-10                       
+xtis       =        2                           
+bvs        =        11.9                        
+xjbvs      =        1                           
+ijthsrev   =        0.1                         
+ijthsfwd   =        0.1                         
*
* DIODE and FET CAPACITANCE PARAMETERS
*
+tpb        =        0
+tpbsw      =        0                           
+tpbswg     =        0                           
+tcj        =        0.000992                    
+tcjsw      =        1e-05                       
+tcjswg     =        0                           
+cgdo       =        '3.629e-10*nshort_rf_base_b_overlap_mult'   
+cgso       =        '4e-10*nshort_rf_base_b_overlap_mult'   
+cgbo       =        0                           
+capmod     =        2                           
+xpart      =        0                           
+cgsl       =        '1e-10*nshort_rf_base_b_overlap_mult'   
+cgdl       =        '6e-11*nshort_rf_base_b_overlap_mult'   
+cf         =        1e-11                       
+clc        =        1.2e-08                     
+cle        =        1.9                         
+dlc        =        '2.18e-08+nshort_rf_base_b_dlc_diff+nshort_rf_base_dlc_rotweak'   
+dwc        =        '0+nshort_rf_base_b_dwc_diff'   
+vfbcv      =        -1                          
+acde       =        0.3801                      
+moin       =        23.81                       
+noff       =        1                           
+voffcv     =        -0.06                       
+ngate      =        1e+23                       
+lwc        =        0                           
+llc        =        0                           
+lwlc       =        0                           
+wlc        =        0                           
+wwc        =        0                           
+wwlc       =        0                           
*NEW BSIM4 Parameters(FET and DIODE capacitance parameters)
+ckappas    =        0.6                         
+cjs        =        '0.0024*nshort_rf_base_b_ajunction_mult'   
+mjs        =        0.322                       
+pbs        =        0.9877                      
+cjsws      =        '2.013e-10*nshort_rf_base_b_pjunction_mult'   
+mjsws      =        0.001                       
+pbsws      =        0.4                         
+cjswgs     =        '3.41e-10*nshort_rf_base_b_pjunction_mult'   
+mjswgs     =        0.1                         
+pbswgs     =        0.9064                      
******

* BSIMTran Version 0.1.24, Created on 4-26-2002
* Username: hai
* Command Line: /proj/tlib/s8dia/config/cydir/bin/lnx86/bsimtran nshort_bsim4_RF.rf nmos -p -nnshort_rf_base nshort_1p65xp25m2x4.pm ns1p65xp25m2x4_bsimtranoutput.pm 
* Working Directory: /home/hai/models/s8/s8dia/models.3.2/nshort/combined/beta1
* Time: Tue Dec 11 11:32:32 2007
* Rule File:  nshort_bsim4_RF.rf
* Output File:  ns1p65xp25m2x4_bsimtranoutput.pm
* Input Files:
* (1) nshort_1p65xp25m2x4.pm
*copyright, Cypress Semiconductor, 2002
*BSIM3.V3 NMOS Model

.model nshort_rf_base_m2_b.2 nmos
*
*DC IV MOS PARAMETERS
*
+lmin = 2.45e-07  lmax = 2.55e-07  wmin = 1.645e-06  wmax = 1.655e-06
+level      =        54                          
+tnom       =        30                          
+version    =        4.5                         
+toxm       =        4.148e-09                   
+xj         =        1.5e-07                     
+lln        =        1                           
+lwn        =        1                           
+wln        =        1                           
+wwn        =        1                           
+lint       =        '-5.408e-08+nshort_rf_base_b_lint_diff'	   
+ll         =        0                           
+lw         =        0                           
+lwl        =        0                           
+wint       =        '9.181e-09+nshort_rf_base_b_wint_diff'	   
+wl         =        0                           
+ww         =        0                           
+wwl        =        0                           
+xl         =        0                           
+xw         =        0                           
+mobmod     =        0                           
+binunit    =        2                           
+dwg        =        0                           
+dwb        =        0                           
*NEW BSIM4 Parameters(Model Selectors)
+igcmod     =        0                           
+igbmod     =        0                           
+rgatemod   =        3                           
+rbodymod   =        1                           
+trnqsmod   =        0                           
+acnqsmod   =        0                           
+fnoimod    =        1                           
+tnoimod    =        1                           
+permod     =        1                           
+geomod     =        0                           
+rdsmod     =        1                           
+tempmod    =        0                           
*******
*NEW BSIM4 Parameters(4.4 Version)
+lintnoi    =        -1.0e-07                           
+vfbsdoff   =        0                           
+lambda     =        0                           
+vtl        =        2e+05                       
+lc         =        5e-09                       
+xn         =        3                           
+rnoia      =        0.90
+rnoib      =        0.36
+tnoia      =        2.7e7
+tnoib      =        9.9e6
*NEW BSIM4 Parameters(Process Parameters)
+epsrox     =        3.9                         
+toxe       =        '4.148e-09*nshort_rf_base_b_toxe_mult'	
+dtox       =        0                           
+ndep       =        3.1e+17                     
+nsd        =        1e+20                       
+rshg       =        '49.2+nshort_rf_base_b_rshg_diff'   
****
+rsh        =        1                           
*
* THRESHOLD VOLTAGE PARAMETERS
*
+vth0       =        '0.625+nshort_rf_base_m2_b_vth0_diff_2'	
+k1         =        0.5415                      
+k2         =        '-0.07197+nshort_rf_base_m2_b_k2_diff_2'   
+k3         =        3                           
+dvt0       =        0                           
+dvt1       =        0.53                        