* BSIMTran Version 0.1.24, Created on 4-26-2002
* Username: hai
* Command Line: /home/hai/config/cydir/bin/lnx86/bsimtran pmos_bsim4.rf pmos -p -nphv phv_modelnamechanged.pm3 phv_overlap.pm phv_iv_pxg.pm phv_cv_pxg.pm phv_bsimtranoutput.pm3 
* Working Directory: /home/hai/models/s8/s8tee/models.3.1/phv/combined
* Time: Wed Mar 21 11:27:10 2007
* Rule File:  pmos_bsim4.rf
* Output File:  phv_bsimtranoutput.pm3
* Input Files:
* (1) phv_modelnamechanged.pm3
* (2) phv_overlap.pm
* (3) phv_iv_pxg.pm
* (4) phv_cv_pxg.pm
*copyright, Cypress Semiconductor, 2002
*BSIM3.V3 PMOS Model

.model phv.0 pmos
*
*DC IV MOS PARAMETERS
*
+lmin = 4.95e-07  lmax = 5.05e-07  wmin = 9.995e-06  wmax = 1.0005e-05
+level      =        54                          
+tnom       =        30                          
+version    =        4.5                         
+toxm       =        1.175e-008                  
+xj = 1.5e-007   
+lln        =        1                           
+lwn        =        1                           
+wln        =        1                           
+wwn        =        1                           
+lint       =        '4.5375e-008+phv_lint_diff'	
+ll         =        0                           
+lw         =        0                           
+lwl        =        0                           
+wint       =        '1.2277e-008+phv_wint_diff'	
+wl         =        0                           
+ww         =        0                           
+wwl        =        0                           
+xl         =        0                           
+xw         =        0                           
+mobmod     =        0                           
+binunit    =        2                           
+dwg = -4.7338e-009   
+dwb = 0   
*NEW BSIM4 Parameters(Model Selectors)
+igcmod     =        0                           
+igbmod     =        0                           
+rgatemod   =        0                           
+rbodymod   =        1                           
+trnqsmod   =        0                           
+acnqsmod   =        0                           
+fnoimod    =        1                           
+tnoimod    =        1                           
+permod     =        1                           
+geomod     =        0                           
+rdsmod     =        0                           
+tempmod    =        0                           
*******
*NEW BSIM4 Parameters(4.4 Version)
+lintnoi    =        0                           
+vfbsdoff   =        0                           
+lambda     =        0                           
+vtl        =        0                           
+lc         =        5e-009                      
+xn         =        3                           
+rnoia      =        0.577                       
+rnoib      =        0.37                        
+tnoia      =        1.5                         
+tnoib      =        3.5                         
*NEW BSIM4 Parameters(Process Parameters)
+epsrox     =        3.9                         
+toxe       =        '1.175e-008*phv_toxe_mult'	
+dtox       =        0                           
+ndep = 1.7e+017   
+nsd = 1e+020   
+rshg       =        0.1                         
****
+rsh        =        '1*phv_rshp_mult'           
*
* THRESHOLD VOLTAGE PARAMETERS
*
+vth0 = '-0.981+phv_vth0_diff_0'	
+k1 = 0.59804   
+k2 = '0.024041+phv_k2_diff_0'   
+k3 = -2.2405   
+dvt0 = 4.657   
+dvt1 = 0.34864   
+dvt2 = -0.030206   
+dvt0w = -2.2   
+dvt1w = 1016300   
+dvt2w = 0   
+w0 = 0   
+k3b = -0.172   
*NEW BSIM4 Parameters for Level 54
+phin = 0   
+lpe0 = 0   
+lpeb = 0   
+vbm = -3   
+dvtp0 = 0   
+dvtp1 = 0   
*
* MOBILITY PARAMETERS
*
+vsat = '68340+phv_vsat_diff_0'   
+ua = '2.1590772e-009+phv_ua_diff_0'   
+ub = '8.2164e-019+phv_ub_diff_0'   
+uc = -5.2815e-012   
+rdsw = '788.47+phv_rdsw_diff_0'   
+prwb = 0.053538   
+prwg = 0   
+wr = 1   
+u0 = '0.021377+phv_u0_diff_0'   
+a0 = '0.95964+phv_a0_diff_0'   
+keta = '-0.08587+phv_keta_diff_0'   
+a1 = 0   
+a2 = 0.5   
+ags = '1.25+phv_ags_diff_0'   
+b0 = '0+phv_b0_diff_0'   
+b1 = '0+phv_b1_diff_0'   
*NEW BSIM4 Parameters(Mobility Parameters)
+eu         =        1.67                        
+rdswmin    =        0                           
+rdw = 0   
+rdwmin     =        0                           
+rsw = 0   
+rswmin     =        0                           
*****
*
* SUBTHRESHOLD CURRENT PARAMETERS
*
+voff = '-0.10153677+phv_voff_diff_0'	
+nfactor = '1.1999+phv_nfactor_diff_0'	
+up = 0.0
+ud = 0.0
+lp = 1.0
+tvfbsdoff = 0.0
+tvoff = '0+phv_tvoff_diff_0'
+cit = 5e-006   
+cdsc = 0   
+cdscb = 0   
+cdscd = 0   
+eta0 = '0.064044+phv_eta0_diff_0'   
+etab = -0.0073156   
+dsub = 0.27967   
*NEW BSIM4 Parameters(Sub-threshold parameters)
+voffl = 0   
+minv = 0   
*****
*
* ROUT PARAMETERS
*
+pclm = '1.2297+phv_pclm_diff_0'   
+pdiblc1 = 0.29403034   
+pdiblc2 = 0.0048008826   
+pdiblcb = -0.025   
+drout = 0.89960455   
+pscbe1 = 3.6263996e+008   
+pscbe2 = 1.448673e-008   
+pvag = 0   
+delta = 0.01   
+alpha0 = 9.713535e-005   
+alpha1 = 0   
+beta0 = 54.684511   
*NEW BSIM4 Parameters(ROUT Parameters)
+fprout = 0   
+pdits = '0+phv_pdits_diff_0'   
+pditsl     =        0                           
+pditsd = '0+phv_pditsd_diff_0'   
****
*NEW BSIM4 Parameters(GATE INDUCED DRAIN LEAKAGE MODEL PARAMTERS)
+agidl = '7.5e-009+phv_agidl_diff_0'   
+bgidl = '1.5572e009+phv_bgidl_diff_0'   
+cgidl = '264.48+phv_cgidl_diff_0'   
+egidl = 0.66526877   
****
*NEW BSIM4 Parameters(Gate Leakage Current Parameters)
+aigbacc = 0.43   
+bigbacc = 0.054   
+cigbacc = 0.075   
+nigbacc = 1   
+aigbinv = 0.35   
+bigbinv = 0.03   
+cigbinv = 0.006   
+eigbinv = 1.1   
+nigbinv = 3   
+aigc = 0.43   
+bigc = 0.054   
+cigc = 0.075   
+nigc = 1   
+aigsd = 0.43   
+bigsd = 0.054   
+cigsd = 0.075   
+dlcig = 0   
+poxedge = 1   
+pigcd = 1   
+ntox = 1   
+toxref     =        1.175e-008                  
*****
*
* TEMPERATURE EFFECTS PARAMETERS
*
+kt1 = '-0.60348+phv_kt1_diff_0'   
+kt2 = -0.019032   
+at = 18000   
+ute = -1.3724   
+ua1 = 5.52e-010   
+ub1 = -2.16e-018   
+uc1 = -4.1496e-011   
+kt1l = 0   
+prt = 0   
*NEW BSIM4 Parameters(HIGH SPEED RF MODEL PARAMETERS)
+xrcrg1 = 12   
+xrcrg2 = 1   
+rbpb       =        50                          
+rbpd       =        50                          
+rbps       =        50                          
+rbdb       =        50                          
+rbsb       =        50                          
+gbmin      =        1e-012                      
****
*NEW BSIM4 Parameters(FLICKER and THERMAL NOISE PARAMETERS)
+noia      =        3.0000000E+40                   
+noib      =        8.5300000E+24                  
+noic      =         8.4000000E+07                   
+em         =        4.1000000E+07                    
+af         =        1                           
+ef        =        0.88                           
+kf         =        0                           
+ntnoi      =        1                           
*****
*NEW BSIM4 Parameters(LAYOUT DEPENDENT PARASITIC MODEL PARAMETERS)
+dmcg       =        0                           
+dmcgt      =        0                           
+dmdg       =        0                           
+xgw        =        0                           
+xgl        =        0                           
+ngcon      =        1                           
****
*
*DIODE DC IV PARAMTERS
*
*NEW BSIM4 Parameters(DIODE DC IV parameters)
+diomod     =        1                           
+njs        =        1.3632                      
+jss        =        2.1483e-05                  
+jsws       =        4.02e-12                    
+xtis       =        10                          
+bvs        =        12.69                       
+xjbvs      =        1                           
+ijthsrev   =        0.1                         
+ijthsfwd   =        0.1                         
*
* DIODE and FET CAPACITANCE PARAMETERS
*
+tpb        =        0.001671                    
+tpbsw      =        0                           
+tpbswg     =        0                           
+tcj        =        0.00096                     
+tcjsw      =        3e-005                      
+tcjswg     =        0                           
+cgdo       =        '1.9771e-010*phv_overlap_mult'   
+cgso       =        '1.9771e-010*phv_overlap_mult'   
+cgbo       =        0                           
+capmod     =        2                           
+xpart      =        0                           
+cgsl       =        '1.0005e-011*phv_overlap_mult'   
+cgdl       =        '1.0005e-011*phv_overlap_mult'   
+cf         =        1.2e-011                    
+clc        =        1e-007                      
+cle        =        0.6                         
+dlc        =        '4.4983e-008+phv_dlc_diff+phv_dlc_rotweak'   
+dwc        =        '0+phv_dwc_diff'            
+vfbcv      =        -0.1446893                  
+acde       =        0.401                       
+moin       =        15.773                      
+noff       =        4                           
+voffcv     =        0                           
+ngate      =        1e+023                      
+lwc        =        0                           
+llc        =        0                           
+lwlc       =        0                           
+wlc        =        0                           
+wwc        =        0                           
+wwlc       =        0                           
*NEW BSIM4 Parameters(FET and DIODE capacitance parameters)
+ckappas    =        0.6                         
+cjs        =        '0.00077547*phv_ajunction_mult'   
+mjs        =        0.33956                     
+pbs        =        0.6587                      
+cjsws      =        '9.8717e-011*phv_pjunction_mult'   
+mjsws      =        0.24676                     
+pbsws      =        1                           
+cjswgs     =        '1.46e-010*phv_pjunction_mult'   
+mjswgs     =        0.81                        
+pbswgs     =        3                           
* 
*STRESS PARAMETERS 
* 
+saref   = 1.81e-06
+sbref   = 1.81e-06
+wlod    = '0+phv_wlod_diff'
+kvth0   = '0+phv_kvth0_diff'
+lkvth0  = '0+phv_lkvth0_diff'
+wkvth0  = '0+phv_wkvth0_diff'
+pkvth0  = 0
+llodvth = 0
+wlodvth  = 1
+stk2    = 0
+lodk2   = 1
+lodeta0 = 1
+ku0     = '0+phv_ku0_diff'
+lku0    = '0+phv_lku0_diff'
+wku0    = '0+phv_wku0_diff'
+pku0    = 0
+llodku0 = 0
+wlodku0  = 1
+kvsat   = '0+phv_kvsat_diff'
+steta0  = 0
+tku0    = 0
******

.model phv.1 pmos
*
*DC IV MOS PARAMETERS
*
+lmin = 9.95e-07  lmax = 1.005e-06  wmin = 1.4995e-05  wmax = 1.5005e-05
+level      =        54                          
+tnom       =        30                          
+version    =        4.5                         
+toxm       =        1.175e-008                  
+xj = 1.5e-007   
+lln        =        1                           
+lwn        =        1                           
+wln        =        1                           
+wwn        =        1                           
+lint       =        '4.5375e-008+phv_lint_diff'	
+ll         =        0                           
+lw         =        0                           
+lwl        =        0                           
+wint       =        '1.2277e-008+phv_wint_diff'	
+wl         =        0                           
+ww         =        0                           
+wwl        =        0                           
+xl         =        0                           
+xw         =        0                           
+mobmod     =        0                           
+binunit    =        2                           
+dwg = -4.7338e-009   
+dwb = 0   
*NEW BSIM4 Parameters(Model Selectors)
+igcmod     =        0                           
+igbmod     =        0                           
+rgatemod   =        0                           
+rbodymod   =        1                           
+trnqsmod   =        0                           
+acnqsmod   =        0                           
+fnoimod    =        1                           
+tnoimod    =        1                           
+permod     =        1                           
+geomod     =        0                           
+rdsmod     =        0                           
+tempmod    =        0                           
*******
*NEW BSIM4 Parameters(4.4 Version)
+lintnoi    =        0                           
+vfbsdoff   =        0                           
+lambda     =        0                           
+vtl        =        0                           
+lc         =        5e-009                      
+xn         =        3                           
+rnoia      =        0.577                       
+rnoib      =        0.37                        
+tnoia      =        1.5                         
+tnoib      =        3.5                         
*NEW BSIM4 Parameters(Process Parameters)
+epsrox     =        3.9                         
+toxe       =        '1.175e-008*phv_toxe_mult'	
+dtox       =        0                           
+ndep = 1.7e+017   
+nsd = 1e+020   
+rshg       =        0.1                         
****
+rsh        =        '1*phv_rshp_mult'           
*
* THRESHOLD VOLTAGE PARAMETERS
*
+vth0 = '-0.9724+phv_vth0_diff_1'	
+k1 = 0.57939   
+k2 = '0.020277+phv_k2_diff_1'   
+k3 = -2.2405   
+dvt0 = 4.657   
+dvt1 = 0.34864   
+dvt2 = -0.030206   
+dvt0w = -2.2   
+dvt1w = 1016300   
+dvt2w = 0   
+w0 = 0   
+k3b = -0.172   
*NEW BSIM4 Parameters for Level 54
+phin = 0   
+lpe0 = 0   
+lpeb = 0   
+vbm = -3   
+dvtp0 = 0   
+dvtp1 = 0   
*
* MOBILITY PARAMETERS
*
+vsat = '47889+phv_vsat_diff_1'   
+ua = '1.6494295e-009+phv_ua_diff_1'   
+ub = '1.0975e-018+phv_ub_diff_1'   
+uc = -5.8546e-013   
+rdsw = '788.47+phv_rdsw_diff_1'   
+prwb = 0.053538   
+prwg = 0   
+wr = 1   
+u0 = '0.020384+phv_u0_diff_1'   
+a0 = '0.85515+phv_a0_diff_1'   
+keta = '-0.084672+phv_keta_diff_1'   
+a1 = 0   
+a2 = 0.5   
+ags = '0.77943+phv_ags_diff_1'   
+b0 = '0+phv_b0_diff_1'   
+b1 = '0+phv_b1_diff_1'   
*NEW BSIM4 Parameters(Mobility Parameters)
+eu         =        1.67                        
+rdswmin    =        0                           
+rdw = 0   
+rdwmin     =        0                           
+rsw = 0   
+rswmin     =        0                           
*****
*
* SUBTHRESHOLD CURRENT PARAMETERS
*
+voff = '-0.077755783+phv_voff_diff_1'	
+nfactor = '1.3116+phv_nfactor_diff_1'	
+up = 0.0
+ud = 0.0
+lp = 1.0
+tvfbsdoff = 0.0
+tvoff = '0+phv_tvoff_diff_1'
+cit = 5e-006   
+cdsc = 0   
+cdscb = 0   
+cdscd = 0   
+eta0 = '4.2119e-005+phv_eta0_diff_1'   
+etab = 0   
+dsub = 0.54416   
*NEW BSIM4 Parameters(Sub-threshold parameters)
+voffl = 0   
+minv = 0   
*****
*
* ROUT PARAMETERS
*
+pclm = '1.2031+phv_pclm_diff_1'   
+pdiblc1 = 0.3995264   
+pdiblc2 = 0.0015061847   
+pdiblcb = -0.025   
+drout = 0.41068941   
+pscbe1 = 2.994803e+008   
+pscbe2 = 1.4554569e-008   
+pvag = 0   
+delta = 0.01   
+alpha0 = 6.7813161e-005   
+alpha1 = 0   
+beta0 = 50.152925   
*NEW BSIM4 Parameters(ROUT Parameters)
+fprout = 0   
+pdits = '0+phv_pdits_diff_1'   
+pditsl     =        0                           
+pditsd = '0+phv_pditsd_diff_1'   
****
*NEW BSIM4 Parameters(GATE INDUCED DRAIN LEAKAGE MODEL PARAMTERS)
+agidl = '8.3464e-009+phv_agidl_diff_1'   
+bgidl = '1.6889e009+phv_bgidl_diff_1'   
+cgidl = '368+phv_cgidl_diff_1'   
+egidl = 0.77897916   
****
*NEW BSIM4 Parameters(Gate Leakage Current Parameters)
+aigbacc = 0.43   
+bigbacc = 0.054   
+cigbacc = 0.075   
+nigbacc = 1   
+aigbinv = 0.35   
+bigbinv = 0.03   
+cigbinv = 0.006   
+eigbinv = 1.1   
+nigbinv = 3   
+aigc = 0.43   
+bigc = 0.054   
+cigc = 0.075   
+nigc = 1   
+aigsd = 0.43   
+bigsd = 0.054   
+cigsd = 0.075   
+dlcig = 0   
+poxedge = 1   
+pigcd = 1   
+ntox = 1   
+toxref     =        1.175e-008                  
*****
*
* TEMPERATURE EFFECTS PARAMETERS
*
+kt1 = '-0.6412+phv_kt1_diff_1'   
+kt2 = -0.019032   
+at = 31800   
+ute = -1.6069   
+ua1 = 4.1982e-010   
+ub1 = -3.8064e-018   
+uc1 = -1.092e-010   
+kt1l = 0   
+prt = 0   
*NEW BSIM4 Parameters(HIGH SPEED RF MODEL PARAMETERS)
+xrcrg1 = 12   
+xrcrg2 = 1   
+rbpb       =        50                          
+rbpd       =        50                          
+rbps       =        50                          
+rbdb       =        50                          
+rbsb       =        50                          
+gbmin      =        1e-012                      
****
*NEW BSIM4 Parameters(FLICKER and THERMAL NOISE PARAMETERS)
+noia      =        3.0000000E+40                   
+noib      =        8.5300000E+24                  
+noic      =         8.4000000E+07                   
+em         =        4.1000000E+07                    
+af         =        1                           
+ef        =        0.88                           
+kf         =        0                           
+ntnoi      =        1                           
*****
*NEW BSIM4 Parameters(LAYOUT DEPENDENT PARASITIC MODEL PARAMETERS)
+dmcg       =        0                           
+dmcgt      =        0                           
+dmdg       =        0                           
+xgw        =        0                           
+xgl        =        0                           
+ngcon      =        1                           
****
*
*DIODE DC IV PARAMTERS
*
*NEW BSIM4 Parameters(DIODE DC IV parameters)
+diomod     =        1                           
+njs        =        1.3632                      
+jss        =        2.1483e-05                  
+jsws       =        4.02e-12                    
+xtis       =        10                          
+bvs        =        12.69                       
+xjbvs      =        1                           
+ijthsrev   =        0.1                         
+ijthsfwd   =        0.1                         
*
* DIODE and FET CAPACITANCE PARAMETERS
*
+tpb        =        0.001671                    
+tpbsw      =        0                           
+tpbswg     =        0                           
+tcj        =        0.00096                     
+tcjsw      =        3e-005                      
+tcjswg     =        0                           
+cgdo       =        '1.9771e-010*phv_overlap_mult'   
+cgso       =        '1.9771e-010*phv_overlap_mult'   
+cgbo       =        0                           
+capmod     =        2                           
+xpart      =        0                           
+cgsl       =        '1.0005e-011*phv_overlap_mult'   
+cgdl       =        '1.0005e-011*phv_overlap_mult'   
+cf         =        1.2e-011                    
+clc        =        1e-007                      
+cle        =        0.6                         
+dlc        =        '4.4983e-008+phv_dlc_diff+phv_dlc_rotweak'   
+dwc        =        '0+phv_dwc_diff'            
+vfbcv      =        -0.1446893                  
+acde       =        0.401                       
+moin       =        15.773                      
+noff       =        4                           
+voffcv     =        0                           
+ngate      =        1e+023                      
+lwc        =        0                           
+llc        =        0                           
+lwlc       =        0                           
+wlc        =        0                           
+wwc        =        0                           
+wwlc       =        0                           
*NEW BSIM4 Parameters(FET and DIODE capacitance parameters)
+ckappas    =        0.6                         
+cjs        =        '0.00077547*phv_ajunction_mult'   
+mjs        =        0.33956                     
+pbs        =        0.6587                      
+cjsws      =        '9.8717e-011*phv_pjunction_mult'   
+mjsws      =        0.24676                     
+pbsws      =        1                           
+cjswgs     =        '1.46e-010*phv_pjunction_mult'   
+mjswgs     =        0.81                        
+pbswgs     =        3                           
* 
*STRESS PARAMETERS 
* 
+saref   = 2.81e-06
+sbref   = 2.81e-06
+wlod    = '0+phv_wlod_diff'
+kvth0   = '0+phv_kvth0_diff'
+lkvth0  = '0+phv_lkvth0_diff'
+wkvth0  = '0+phv_wkvth0_diff'
+pkvth0  = 0
+llodvth = 0
+wlodvth  = 1
+stk2    = 0
+lodk2   = 1
+lodeta0 = 1
+ku0     = '0+phv_ku0_diff'
+lku0    = '0+phv_lku0_diff'
+wku0    = '0+phv_wku0_diff'
+pku0    = 0
+llodku0 = 0
+wlodku0  = 1
+kvsat   = '0+phv_kvsat_diff'
+steta0  = 0
+tku0    = 0
******

.model phv.2 pmos
*
*DC IV MOS PARAMETERS
*
+lmin = 4.95e-07  lmax = 5.05e-07  wmin = 1.4995e-05  wmax = 1.5005e-05
+level      =        54                          
+tnom       =        30                          
+version    =        4.5                         
+toxm       =        1.175e-008                  
+xj = 1.5e-007   
+lln        =        1                           
+lwn        =        1                           
+wln        =        1                           
+wwn        =        1                           
+lint       =        '4.5375e-008+phv_lint_diff'	
+ll         =        0                           
+lw         =        0                           
+lwl        =        0                           
+wint       =        '1.2277e-008+phv_wint_diff'	
+wl         =        0                           
+ww         =        0                           
+wwl        =        0                           
+xl         =        0                           
+xw         =        0                           
+mobmod     =        0                           
+binunit    =        2                           
+dwg = -4.7338e-009   
+dwb = 0   
*NEW BSIM4 Parameters(Model Selectors)
+igcmod     =        0                           
+igbmod     =        0                           
+rgatemod   =        0                           
+rbodymod   =        1                           
+trnqsmod   =        0                           
+acnqsmod   =        0                           
+fnoimod    =        1                           
+tnoimod    =        1                           
+permod     =        1                           
+geomod     =        0                           
+rdsmod     =        0                           
+tempmod    =        0                           
*******
*NEW BSIM4 Parameters(4.4 Version)
+lintnoi    =        0                           
+vfbsdoff   =        0                           
+lambda     =        0                           
+vtl        =        0                           
+lc         =        5e-009                      
+xn         =        3                           
+rnoia      =        0.577                       
+rnoib      =        0.37                        
+tnoia      =        1.5                         
+tnoib      =        3.5                         
*NEW BSIM4 Parameters(Process Parameters)
+epsrox     =        3.9                         
+toxe       =        '1.175e-008*phv_toxe_mult'	
+dtox       =        0                           
+ndep = 1.7e+017   
+nsd = 1e+020   
+rshg       =        0.1                         
****
+rsh        =        '1*phv_rshp_mult'           
*
* THRESHOLD VOLTAGE PARAMETERS
*
+vth0 = '-0.9885+phv_vth0_diff_2'	
+k1 = 0.59804   
+k2 = '0.024041+phv_k2_diff_2'   
+k3 = -2.2405   
+dvt0 = 4.657   
+dvt1 = 0.34864   
+dvt2 = -0.030206   
+dvt0w = -2.2   
+dvt1w = 1016300   
+dvt2w = 0   
+w0 = 0   
+k3b = -0.172   
*NEW BSIM4 Parameters for Level 54
+phin = 0   
+lpe0 = 0   
+lpeb = 0   
+vbm = -3   
+dvtp0 = 0   
+dvtp1 = 0   
*
* MOBILITY PARAMETERS
*
+vsat = '67000+phv_vsat_diff_2'   
+ua = '2.1590772e-009+phv_ua_diff_2'   
+ub = '9.5539e-019+phv_ub_diff_2'   
+uc = -5.2815e-012   
+rdsw = '788.47+phv_rdsw_diff_2'   
+prwb = 0.053538   
+prwg = 0   
+wr = 1   
+u0 = '0.022+phv_u0_diff_2'   
+a0 = '0.95964+phv_a0_diff_2'   
+keta = '-0.08587+phv_keta_diff_2'   
+a1 = 0   
+a2 = 0.5   
+ags = '1.25+phv_ags_diff_2'   
+b0 = '0+phv_b0_diff_2'   
+b1 = '0+phv_b1_diff_2'   
*NEW BSIM4 Parameters(Mobility Parameters)
+eu         =        1.67                        
+rdswmin    =        0                           
+rdw = 0   
+rdwmin     =        0                           
+rsw = 0   
+rswmin     =        0                           
*****
*
* SUBTHRESHOLD CURRENT PARAMETERS
*
+voff = '-0.10153677+phv_voff_diff_2'	
+nfactor = '1.1999+phv_nfactor_diff_2'	
+up = 0.0
+ud = 0.0
+lp = 1.0
+tvfbsdoff = 0.0
+tvoff = '0+phv_tvoff_diff_2'
+cit = 5e-006   
+cdsc = 0   
+cdscb = 0   
+cdscd = 0   
+eta0 = '0.068847+phv_eta0_diff_2'   
+etab = -0.0038503   
+dsub = 0.27967   
*NEW BSIM4 Parameters(Sub-threshold parameters)
+voffl = 0   
+minv = 0   
*****
*
* ROUT PARAMETERS
*
+pclm = '1.3366+phv_pclm_diff_2'   
+pdiblc1 = 0.29403034   
+pdiblc2 = 0.0048008826   
+pdiblcb = -0.025   
+drout = 0.89960455   
+pscbe1 = 3.6263996e+008   
+pscbe2 = 1.448673e-008   
+pvag = 0   
+delta = 0.01   
+alpha0 = 9.713535e-005   
+alpha1 = 0   
+beta0 = 54.684511   
*NEW BSIM4 Parameters(ROUT Parameters)
+fprout = 0   
+pdits = '0+phv_pdits_diff_2'   
+pditsl     =        0                           
+pditsd = '0+phv_pditsd_diff_2'   
****
*NEW BSIM4 Parameters(GATE INDUCED DRAIN LEAKAGE MODEL PARAMTERS)
+agidl = '1.3668e-008+phv_agidl_diff_2'   
+bgidl = '1.6195e009+phv_bgidl_diff_2'   
+cgidl = '316.68+phv_cgidl_diff_2'   
+egidl = 0.66526877   
****
*NEW BSIM4 Parameters(Gate Leakage Current Parameters)
+aigbacc = 0.43   
+bigbacc = 0.054   
+cigbacc = 0.075   
+nigbacc = 1   
+aigbinv = 0.35   
+bigbinv = 0.03   
+cigbinv = 0.006   
+eigbinv = 1.1   
+nigbinv = 3   
+aigc = 0.43   
+bigc = 0.054   
+cigc = 0.075   
+nigc = 1   
+aigsd = 0.43   
+bigsd = 0.054   
+cigsd = 0.075   
+dlcig = 0   
+poxedge = 1   
+pigcd = 1   
+ntox = 1   
+toxref     =        1.175e-008                  
*****
*
* TEMPERATURE EFFECTS PARAMETERS
*
+kt1 = '-0.60348+phv_kt1_diff_2'   
+kt2 = -0.019032   
+at = 18000   
+ute = -1.3724   
+ua1 = 5.52e-010   
+ub1 = -2.16e-018   
+uc1 = -4.1496e-011   
+kt1l = 0   
+prt = 0   
*NEW BSIM4 Parameters(HIGH SPEED RF MODEL PARAMETERS)
+xrcrg1 = 12   
+xrcrg2 = 1   
+rbpb       =        50                          
+rbpd       =        50                          
+rbps       =        50                          
+rbdb       =        50                          
+rbsb       =        50                          
+gbmin      =        1e-012                      
****
*NEW BSIM4 Parameters(FLICKER and THERMAL NOISE PARAMETERS)
+noia      =        3.0000000E+40                   
+noib      =        8.5300000E+24                  
+noic      =         8.4000000E+07                   
+em         =        4.1000000E+07                    
+af         =        1                           
+ef        =        0.88                           
+kf         =        0                           
+ntnoi      =        1                           
*****
*NEW BSIM4 Parameters(LAYOUT DEPENDENT PARASITIC MODEL PARAMETERS)
+dmcg       =        0                           
+dmcgt      =        0                           
+dmdg       =        0                           
+xgw        =        0                           
+xgl        =        0                           
+ngcon      =        1                           
****
*
*DIODE DC IV PARAMTERS
*
*NEW BSIM4 Parameters(DIODE DC IV parameters)
+diomod     =        1                           
+njs        =        1.3632                      
+jss        =        2.1483e-05                  
+jsws       =        4.02e-12                    
+xtis       =        10                          
+bvs        =        12.69                       
+xjbvs      =        1                           
+ijthsrev   =        0.1                         
+ijthsfwd   =        0.1                         
*
* DIODE and FET CAPACITANCE PARAMETERS
*
+tpb        =        0.001671                    
+tpbsw      =        0                           
+tpbswg     =        0                           
+tcj        =        0.00096                     
+tcjsw      =        3e-005                      
+tcjswg     =        0                           
+cgdo       =        '1.9771e-010*phv_overlap_mult'   
+cgso       =        '1.9771e-010*phv_overlap_mult'   
+cgbo       =        0                           
+capmod     =        2                           
+xpart      =        0                           
+cgsl       =        '1.0005e-011*phv_overlap_mult'   
+cgdl       =        '1.0005e-011*phv_overlap_mult'   
+cf         =        1.2e-011                    
+clc        =        1e-007                      
+cle        =        0.6                         
+dlc        =        '4.4983e-008+phv_dlc_diff+phv_dlc_rotweak'   
+dwc        =        '0+phv_dwc_diff'            
+vfbcv      =        -0.1446893                  
+acde       =        0.401                       
+moin       =        15.773                      
+noff       =        4                           
+voffcv     =        0                           
+ngate      =        1e+023                      
+lwc        =        0                           
+llc        =        0                           
+lwlc       =        0                           
+wlc        =        0                           
+wwc        =        0                           
+wwlc       =        0                           
*NEW BSIM4 Parameters(FET and DIODE capacitance parameters)
+ckappas    =        0.6                         
+cjs        =        '0.00077547*phv_ajunction_mult'   
+mjs        =        0.33956                     
+pbs        =        0.6587                      
+cjsws      =        '9.8717e-011*phv_pjunction_mult'   
+mjsws      =        0.24676                     
+pbsws      =        1                           
+cjswgs     =        '1.46e-010*phv_pjunction_mult'   
+mjswgs     =        0.81                        
+pbswgs     =        3                           
* 