* BSIMTran Version 0.1.24, Created on 4-26-2002
* Username: qhc
* Command Line: /net/alexis/disk1/qhc/ICM_WA/qhc_s8tsafeg6_dev_178/config/cydir/bin/amd64/bsimtran plowvt/pmos_bsim4.rf pmos -p -nplowvt plowvt_ff_raw.pm3 plowvt_ff.pm3 
* Working Directory: /net/alexis/disk1/qhc/s8-models/s8x/models.3.5/spice/inverse_benny
* Time: Wed Jul  2 15:16:20 2014
* Rule File:  plowvt/pmos_bsim4.rf
* Output File:  plowvt_ff.pm3
* Input Files:
* (1) plowvt_ff_raw.pm3
*copyright, Cypress Semiconductor, 2007
*BSIM4.V5 PMOS Model

.model plowvt.0 pmos
*
***MODEL FLAG PARAMETERS
*
+lmin = 2.0e-05   lmax = 0.0001   wmin = 7.0e-06   wmax = 0.0001   
+level      =        54.0                        
+version    =        4.5                         
+binunit    =        2.0                         
+mobmod     =        0.0                         
+capmod     =        2.0                         
+igcmod     =        0.0                         
+igbmod     =        0.0                         
+geomod     =        0.0                         
+diomod     =        1.0                         
+rdsmod     =        0.0                         
+rbodymod   =        1.0                         
+rgatemod   =        0.0                         
+permod     =        1.0                         
+acnqsmod   =        0.0                         
+trnqsmod   =        0.0                         
+fnoimod    =        1.0                         
+tnoimod    =        1.0                         
+tempmod    =        0.0                         
***PROCESS PARAMETERS
+toxe       =        4.075605e-09	
+toxm       =        4.23e-09                    
+dtox       =        0.0                         
+epsrox     =        3.9                         
+xj = 1.5e-07   
+ngate = 1.0e+23   
+ndep = 1.7e+17   
+nsd = 1.0e+20   
+rsh        =        1.0                         
+rshg       =        0.1                         
***BASIC MODEL PARAMETERS
+wint       =        -1.5044e-08	   
+lint       =        1.49275e-08	   
+vth0 = -0.353895	
+k1 = 0.64774   
+k2 = -0.015394   
+k3 = 3.39   
+k3b = 1.0   
+w0 = 1.0e-08   
+dvt0 = 2.4422   
+dvt1 = 0.16136   
+dvt2 = 0.026237   
+dvt0w = 0.5   
+dvt1w = 1928100.0   
+dvt2w = -0.032   
+dsub = 1.0   
+minv = 0.0   
+voffl      =        0.0                         
+lpe0 = 0.0   
+lpeb = 0.0   
+vbm = -3.0   
+dvtp0 = 0.0   
+dvtp1 = 0.0   
+phin = 0.0   
+cdsc = 2.8125e-07   
+cdscb = 0.0001   
+cdscd = 1.0e-10   
+cit = -6.393105e-11   
+voff = -0.1819	
+nfactor = 2.5373	   
+eta0 = 0.2   
+etab = -0.00025   
+u0 = 0.00239108	   
+ua = -3.0054e-09   
+ub = 3.0419e-18   
+uc = 4.9353e-11   
+ud = 0.0   
+up = 0.0   
+lp = 1.0   
+eu = 1.67   
+vtl = 0.0   
+xn = 3.0   
+vsat = 123760.0   
+a0 = 1.75036   
+ags = 0.338792   
+a1 = 0.0   
+a2 = 0.46703705   
+b0 = 0.0   
+b1 = 2.1073e-24   
+keta = -0.01258   
+dwg = -7.916e-09   
+dwb = 0.0   
+pclm = 0.030097   
+pdiblc1 = 0.0   
+pdiblc2 = 0.0018466   
+pdiblcb = -0.025   
+drout = 0.43496   
+pscbe1 = 800000000.0   
+pscbe2 = 8.6797e-09   
+pvag = 0.0   
+delta = 0.01363   
+fprout = 0.0   
+pdits = 0.0   
+pditsl     =        0.0                         
+pditsd = 0.0   
+lambda     =        0.0                         
+lc         =        5.0e-09                     
***PARAMETERS FOR ASYMMETRIC AND BIAS-DEPENDENT RDS MODEL******
+rdsw = 484.7   
+rsw = 0.0   
+rdw = 0.0   
+rdswmin    =        0.0                         
+rdwmin     =        0.0                         
+rswmin     =        0.0                         
+prwb = 0.1   
+prwg = 0.052   
+wr = 1.0   
***IMPACT IONIZATION CURRENT MODEL PARAMTERS******************
+alpha0 = 5.0449517e-13   
+alpha1 = -4.0583656e-18   
+beta0 = 6.2016506   
***GIDL INDUCED DRAIN LEAKAGE MODEL PARAMETERS*****************
+agidl = 0.0   
+bgidl = 2300000000.0   
+cgidl = 0.5   
+egidl = 0.8   
***GATE DIELECTRIC TUNNELING CURRENT MODEL PARAMETERS**********
+toxref     =        4.23e-09                    
+dlcig = 0.0   
+aigbacc = 0.43   
+bigbacc = 0.054   
+cigbacc = 0.075   
+nigbacc = 1.0   
+aigbinv = 0.35   
+bigbinv = 0.03   
+cigbinv = 0.006   
+eigbinv = 1.1   
+nigbinv = 3.0   
+aigc = 0.43   
+bigc = 0.054   
+cigc = 0.075   
+aigsd = 0.43   
+bigsd = 0.054   
+cigsd = 0.075   
+nigc = 1.0   
+poxedge = 1.0   
+pigcd = 1.0   
+ntox = 1.0   
+vfbsdoff   =        0.0                         
***CHARGE AND CAPACITANCE MODEL PARAMETERS********************
+dlc        =        2.0382e-08                  
+dwc        =        -2.252e-08                  
+xpart      =        0.0                         
+cgso       =        7.24e-11                    
+cgdo       =        7.24e-11                    
+cgbo       =        1.0e-13                     
+cgdl = 0.0   
+cgsl = 0.0   
+clc = 7.0e-08   
+cle = 0.492   
+cf = 0.0   
+ckappas = 0.6   
+vfbcv = -1.0   
+acde = 0.44   
+moin = 8.7   
+noff = 2.6123   
+voffcv = 0.112   
***HIGH-SPEED/RF MODEL PARAMETERS******************************
+xrcrg1     =        12.0                        
+xrcrg2     =        1.0                         
+rbpb       =        50.0                        
+rbpd       =        50.0                        
+rbps       =        50.0                        
+rbdb       =        50.0                        
+rbsb       =        50.0                        
+gbmin      =        1.0e-12                     
***FLICKER AND THERMAL NOISE MODEL PARAMETERS******************
+ef         =        0.88                        
+noia       =        3.0e+41                     
+noib       =        0.0                         
+noic       =        0.0                         
+em         =        41000000.0                  
+ntnoi      =        1.0                         
+lintnoi    =        0.0                         
+af         =        1.0                         
+kf         =        0.0                         
+tnoia      =        25000000.0                  
+tnoib      =        0.0                         
+rnoia      =        0.69                        
+rnoib      =        0.34                        
***LAYOUT-DEPENDENT PARASITICS MODEL PARAMETERS****************
+xl         =        0.0                         
+xw         =        0.0                         
+dmcg       =        0.0                         
+dmdg       =        0.0                         
+dmcgt      =        0.0                         
+xgw        =        0.0                         
+xgl        =        0.0                         
+ngcon      =        1.0                         
***ASYMMETRIC SOURCE/DRAIN JUNCTION DIODE MODEL PARAMETERS*****
+jss        =        2.1483e-05                  
+jsws       =        1.4472e-10                  
+ijthsfwd   =        0.1                         
+ijthsrev   =        0.1                         
+bvs        =        12.69                       
+xjbvs      =        1.0                         
+pbs        =        0.6587                      
+cjs        =        0.0007144615823             
+mjs        =        0.3362                      
+pbsws      =        0.7418                      
+cjsws      =        8.55153728e-11              
+mjsws      =        0.2659                      
+pbswgs     =        1.4338                      
+cjswgs     =        2.232631466e-10             
+mjswgs     =        0.9274                      

***TEMPERATURE DEPENDENCE PARAMETERS***************************
+tnom       =        30.0                        
+kt1 = -0.60135   
+kt2 = -0.055045   
+at = 285600.0   
+ute = -0.22271   
+ua1 = 6.8217e-10   
+ub1 = -1.4864e-19   
+uc1 = -9.961e-12   
+kt1l = 0.0   
+prt = 0.0   
+tvoff = 0.0   
+njs        =        1.3632                      
+tpb        =        0.001671                    
+tcj        =        0.0012407                   
+tpbsw      =        0.001246                    
+tcjsw      =        0.00037357                  
+tpbswg     =        0.0                         
+tcjswg     =        2.0e-12                     
+xtis       =        5.2                         
+tvfbsdoff  =        0.0                         
***DW AND DL PARAMETERS****************************************
+ll         =        0.0                         
+wl         =        0.0                         
+lln        =        1.0                         
+wln        =        1.0                         
+lw         =        0.0                         
+ww         =        0.0                         
+lwn        =        1.0                         
+wwn        =        1.0                         
+lwl        =        0.0                         
+wwl        =        0.0                         
+llc        =        0.0                         
+wlc        =        0.0                         
+lwc        =        0.0                         
+wwc        =        0.0                         
+lwlc       =        0.0                         
+wwlc       =        0.0                         
***STRESS PARAMETERS*******************************************
+saref      =        3.0e-06                     
+sbref      =        3.0e-06                     
+kvth0      =        1.76e-08                    
+lkvth0     =        0.0                         
+wkvth0     =        7.3e-07                     
+pkvth0     =        0.0                         
+llodvth    =        0.0                         
+wlodvth    =        1.0                         
+wlod       =        0.0                         
+stk2       =        0.0                         
+lodk2      =        1.0                         
+lodeta0    =        1.0                         
+ku0        =        5.9e-08                     
+lku0       =        0.0                         
+wku0       =        0.0                         
+pku0       =        0.0                         
+tku0       =        0.0                         
+llodku0    =        0.0                         
+wlodku0    =        1.0                         
+kvsat      =        0.0                         
+steta0     =        0.0                         
***WELL PROXIMITY EFFECT PARAMETERS****************************
******

.model plowvt.1 pmos
*
***MODEL FLAG PARAMETERS
*
+lmin = 8.0e-06   lmax = 2.0e-05   wmin = 7.0e-06   wmax = 0.0001   
+level      =        54.0                        
+version    =        4.5                         
+binunit    =        2.0                         
+mobmod     =        0.0                         
+capmod     =        2.0                         
+igcmod     =        0.0                         
+igbmod     =        0.0                         
+geomod     =        0.0                         
+diomod     =        1.0                         
+rdsmod     =        0.0                         
+rbodymod   =        1.0                         
+rgatemod   =        0.0                         
+permod     =        1.0                         
+acnqsmod   =        0.0                         
+trnqsmod   =        0.0                         
+fnoimod    =        1.0                         
+tnoimod    =        1.0                         
+tempmod    =        0.0                         
***PROCESS PARAMETERS
+toxe       =        4.075605e-09	
+toxm       =        4.23e-09                    
+dtox       =        0.0                         
+epsrox     =        3.9                         
+xj = 1.5e-07   
+ngate = 1.0e+23   
+ndep = 1.7e+17   
+nsd = 1.0e+20   
+rsh        =        1.0                         
+rshg       =        0.1                         
***BASIC MODEL PARAMETERS
+wint       =        -1.5044e-08	   
+lint       =        1.49275e-08	   
+vth0 = -0.353895	
+k1 = 0.64774   
+k2 = -0.015394   
+k3 = 3.39   
+k3b = 1.0   
+w0 = 1.0e-08   
+dvt0 = 2.4422   
+dvt1 = 0.16136   
+dvt2 = 0.026237   
+dvt0w = 0.5   
+dvt1w = 1928100.0   
+dvt2w = -0.032   
+dsub = 1.0   
+minv = 0.0   
+voffl      =        0.0                         
+lpe0 = 0.0   
+lpeb = 0.0   
+vbm = -3.0   
+dvtp0 = 0.0   
+dvtp1 = 0.0   
+phin = 0.0   
+cdsc = 2.8125e-07   
+cdscb = 0.0001   
+cdscd = 1.0e-10   
+cit = -6.393105e-11   
+voff = -0.1819	
+nfactor = 2.5373	   
+eta0 = 0.2   
+etab = -0.00025   
+u0 = 0.00239108	   
+ua = -3.0054e-09   
+ub = 3.0419e-18   
+uc = 4.9353e-11   
+ud = 0.0   
+up = 0.0   
+lp = 1.0   
+eu = 1.67   
+vtl = 0.0   
+xn = 3.0   
+vsat = 123760.0   
+a0 = 1.75036   
+ags = 0.338792   
+a1 = 0.0   
+a2 = 0.46703705   
+b0 = 0.0   
+b1 = 2.1073e-24   
+keta = -0.01258   
+dwg = -7.916e-09   
+dwb = 0.0   
+pclm = 0.030097   
+pdiblc1 = 0.0   
+pdiblc2 = 0.0018466   
+pdiblcb = -0.025   
+drout = 0.43496   
+pscbe1 = 800000000.0   
+pscbe2 = 8.6797e-09   
+pvag = 0.0   
+delta = 0.01363   
+fprout = 0.0   
+pdits = 0.0   
+pditsl     =        0.0                         
+pditsd = 0.0   
+lambda     =        0.0                         
+lc         =        5.0e-09                     
***PARAMETERS FOR ASYMMETRIC AND BIAS-DEPENDENT RDS MODEL******
+rdsw = 484.7   
+rsw = 0.0   
+rdw = 0.0   
+rdswmin    =        0.0                         
+rdwmin     =        0.0                         
+rswmin     =        0.0                         
+prwb = 0.1   
+prwg = 0.052   
+wr = 1.0   
***IMPACT IONIZATION CURRENT MODEL PARAMTERS******************
+alpha0 = 5.0449517e-13   
+alpha1 = -4.0583656e-18   
+beta0 = 6.2016506   
***GIDL INDUCED DRAIN LEAKAGE MODEL PARAMETERS*****************
+agidl = 0.0   
+bgidl = 2300000000.0   
+cgidl = 0.5   
+egidl = 0.8   
***GATE DIELECTRIC TUNNELING CURRENT MODEL PARAMETERS**********
+toxref     =        4.23e-09                    
+dlcig = 0.0   
+aigbacc = 0.43   
+bigbacc = 0.054   
+cigbacc = 0.075   
+nigbacc = 1.0   
+aigbinv = 0.35   
+bigbinv = 0.03   
+cigbinv = 0.006   
+eigbinv = 1.1   
+nigbinv = 3.0   
+aigc = 0.43   
+bigc = 0.054   
+cigc = 0.075   
+aigsd = 0.43   
+bigsd = 0.054   
+cigsd = 0.075   
+nigc = 1.0   
+poxedge = 1.0   
+pigcd = 1.0   
+ntox = 1.0   
+vfbsdoff   =        0.0                         
***CHARGE AND CAPACITANCE MODEL PARAMETERS********************
+dlc        =        2.0382e-08                  
+dwc        =        -2.252e-08                  
+xpart      =        0.0                         
+cgso       =        7.24e-11                    
+cgdo       =        7.24e-11                    
+cgbo       =        1.0e-13                     
+cgdl = 0.0   
+cgsl = 0.0   
+clc = 7.0e-08   
+cle = 0.492   
+cf = 0.0   
+ckappas = 0.6   
+vfbcv = -1.0   
+acde = 0.44   
+moin = 8.7   
+noff = 2.6123   
+voffcv = 0.112   
***HIGH-SPEED/RF MODEL PARAMETERS******************************
+xrcrg1     =        12.0                        
+xrcrg2     =        1.0                         
+rbpb       =        50.0                        
+rbpd       =        50.0                        
+rbps       =        50.0                        
+rbdb       =        50.0                        
+rbsb       =        50.0                        
+gbmin      =        1.0e-12                     
***FLICKER AND THERMAL NOISE MODEL PARAMETERS******************
+ef         =        0.88                        
+noia       =        3.0e+41                     
+noib       =        0.0                         
+noic       =        0.0                         
+em         =        41000000.0                  
+ntnoi      =        1.0                         
+lintnoi    =        0.0                         
+af         =        1.0                         
+kf         =        0.0                         
+tnoia      =        25000000.0                  
+tnoib      =        0.0                         
+rnoia      =        0.69                        
+rnoib      =        0.34                        
***LAYOUT-DEPENDENT PARASITICS MODEL PARAMETERS****************
+xl         =        0.0                         
+xw         =        0.0                         
+dmcg       =        0.0                         
+dmdg       =        0.0                         
+dmcgt      =        0.0                         
+xgw        =        0.0                         
+xgl        =        0.0                         
+ngcon      =        1.0                         
***ASYMMETRIC SOURCE/DRAIN JUNCTION DIODE MODEL PARAMETERS*****
+jss        =        2.1483e-05                  
+jsws       =        1.4472e-10                  
+ijthsfwd   =        0.1                         
+ijthsrev   =        0.1                         
+bvs        =        12.69                       
+xjbvs      =        1.0                         
+pbs        =        0.6587                      
+cjs        =        0.0007144615823             
+mjs        =        0.3362                      
+pbsws      =        0.7418                      
+cjsws      =        8.55153728e-11              
+mjsws      =        0.2659                      
+pbswgs     =        1.4338                      
+cjswgs     =        2.232631466e-10             
+mjswgs     =        0.9274                      

***TEMPERATURE DEPENDENCE PARAMETERS***************************
+tnom       =        30.0                        
+kt1 = -0.60135   
+kt2 = -0.055045   
+at = 285600.0   
+ute = -0.22271   
+ua1 = 6.8217e-10   
+ub1 = -1.4864e-19   
+uc1 = -9.961e-12   
+kt1l = 0.0   
+prt = 0.0   
+tvoff = 0.0   
+njs        =        1.3632                      
+tpb        =        0.001671                    
+tcj        =        0.0012407                   
+tpbsw      =        0.001246                    
+tcjsw      =        0.00037357                  
+tpbswg     =        0.0                         
+tcjswg     =        2.0e-12                     
+xtis       =        5.2                         
+tvfbsdoff  =        0.0                         
***DW AND DL PARAMETERS****************************************
+ll         =        0.0                         
+wl         =        0.0                         
+lln        =        1.0                         
+wln        =        1.0                         
+lw         =        0.0                         
+ww         =        0.0                         
+lwn        =        1.0                         
+wwn        =        1.0                         
+lwl        =        0.0                         
+wwl        =        0.0                         
+llc        =        0.0                         
+wlc        =        0.0                         
+lwc        =        0.0                         
+wwc        =        0.0                         
+lwlc       =        0.0                         
+wwlc       =        0.0                         
***STRESS PARAMETERS*******************************************
+saref      =        3.0e-06                     
+sbref      =        3.0e-06                     
+kvth0      =        1.76e-08                    
+lkvth0     =        0.0                         
+wkvth0     =        7.3e-07                     
+pkvth0     =        0.0                         
+llodvth    =        0.0                         
+wlodvth    =        1.0                         
+wlod       =        0.0                         
+stk2       =        0.0                         
+lodk2      =        1.0                         
+lodeta0    =        1.0                         
+ku0        =        5.9e-08                     
+lku0       =        0.0                         
+wku0       =        0.0                         
+pku0       =        0.0                         
+tku0       =        0.0                         
+llodku0    =        0.0                         
+wlodku0    =        1.0                         
+kvsat      =        0.0                         
+steta0     =        0.0                         
***WELL PROXIMITY EFFECT PARAMETERS****************************
******

.model plowvt.2 pmos
*
***MODEL FLAG PARAMETERS
*
+lmin = 4.0e-06   lmax = 8.0e-06   wmin = 7.0e-06   wmax = 0.0001   
+level      =        54.0                        
+version    =        4.5                         
+binunit    =        2.0                         
+mobmod     =        0.0                         
+capmod     =        2.0                         
+igcmod     =        0.0                         
+igbmod     =        0.0                         
+geomod     =        0.0                         
+diomod     =        1.0                         
+rdsmod     =        0.0                         
+rbodymod   =        1.0                         
+rgatemod   =        0.0                         
+permod     =        1.0                         
+acnqsmod   =        0.0                         
+trnqsmod   =        0.0                         
+fnoimod    =        1.0                         
+tnoimod    =        1.0                         
+tempmod    =        0.0                         
***PROCESS PARAMETERS
+toxe       =        4.075605e-09	
+toxm       =        4.23e-09                    
+dtox       =        0.0                         
+epsrox     =        3.9                         
+xj = 1.5e-07   
+ngate = 1.0e+23   
+ndep = 1.7e+17   
+nsd = 1.0e+20   
+rsh        =        1.0                         
+rshg       =        0.1                         
***BASIC MODEL PARAMETERS
+wint       =        -1.5044e-08	   
+lint       =        1.49275e-08	   
+vth0 = -3.600368143e-01	
+k1 = 0.64774   
+k2 = -1.748031120e-02   lk2 = 1.662820276e-08   
+k3 = 3.39   
+k3b = 1.0   
+w0 = 1.0e-08   
+dvt0 = 2.4422   
+dvt1 = 0.16136   
+dvt2 = 0.026237   
+dvt0w = 0.5   
+dvt1w = 1928100.0   
+dvt2w = -0.032   
+dsub = 1.0   
+minv = 0.0   
+voffl      =        0.0                         
+lpe0 = 0.0   
+lpeb = 0.0   
+vbm = -3.0   
+dvtp0 = 0.0   
+dvtp1 = 0.0   
+phin = 0.0   
+cdsc = 2.8125e-07   
+cdscb = 0.0001   
+cdscd = 1.0e-10   
+cit = -6.393105e-11   
+voff = -0.1819	
+nfactor = 2.5373	   
+eta0 = 0.2   
+etab = -0.00025   
+u0 = 2.311716801e-03	   lu0 = 6.325362001e-10   
+ua = -3.063860385e-09   lua = 4.659377462e-16   
+ub = 3.130434233e-18   lub = -7.056306785e-25   
+uc = 3.786240783e-11   luc = 9.158168570e-17   
+ud = 0.0   
+up = 0.0   
+lp = 1.0   
+eu = 1.67   
+vtl = 0.0   
+xn = 3.0   
+vsat = 123760.0   
+a0 = 1.842794901e+00   la0 = -7.367195637e-07   
+ags = 3.220434470e-01   lags = 1.334883956e-07   
+a1 = 0.0   
+a2 = 0.46703705   
+b0 = 0.0   
+b1 = 2.1073e-24   
+keta = -0.01258   
+dwg = -7.916e-09   
+dwb = 0.0   
+pclm = 0.030097   
+pdiblc1 = 0.0   
+pdiblc2 = 8.564218525e-05   lpdiblc2 = 1.403508912e-08   
+pdiblcb = -0.025   
+drout = 0.43496   
+pscbe1 = 800000000.0   
+pscbe2 = 8.6797e-09   
+pvag = 0.0   
+delta = 5.907075439e-03   ldelta = 6.155282858e-08   
+fprout = 0.0   
+pdits = 0.0   
+pditsl     =        0.0                         
+pditsd = 0.0   
+lambda     =        0.0                         
+lc         =        5.0e-09                     
***PARAMETERS FOR ASYMMETRIC AND BIAS-DEPENDENT RDS MODEL******
+rdsw = 484.7   
+rsw = 0.0   
+rdw = 0.0   
+rdswmin    =        0.0                         
+rdwmin     =        0.0                         
+rswmin     =        0.0                         
+prwb = 0.1   
+prwg = 0.052   
+wr = 1.0   
***IMPACT IONIZATION CURRENT MODEL PARAMTERS******************
+alpha0 = 5.0449517e-13   
+alpha1 = -4.0583656e-18   
+beta0 = 6.2016506   
***GIDL INDUCED DRAIN LEAKAGE MODEL PARAMETERS*****************
+agidl = 0.0   
+bgidl = 2300000000.0   
+cgidl = 0.5   
+egidl = 0.8   
***GATE DIELECTRIC TUNNELING CURRENT MODEL PARAMETERS**********
+toxref     =        4.23e-09                    
+dlcig = 0.0   
+aigbacc = 0.43   
+bigbacc = 0.054   
+cigbacc = 0.075   
+nigbacc = 1.0   
+aigbinv = 0.35   
+bigbinv = 0.03   
+cigbinv = 0.006   
+eigbinv = 1.1   
+nigbinv = 3.0   
+aigc = 0.43   
+bigc = 0.054   
+cigc = 0.075   
+aigsd = 0.43   
+bigsd = 0.054   
+cigsd = 0.075   
+nigc = 1.0   
+poxedge = 1.0   
+pigcd = 1.0   
+ntox = 1.0   
+vfbsdoff   =        0.0                         
***CHARGE AND CAPACITANCE MODEL PARAMETERS********************
+dlc        =        2.0382e-08                  
+dwc        =        -2.252e-08                  
+xpart      =        0.0                         
+cgso       =        7.24e-11                    
+cgdo       =        7.24e-11                    
+cgbo       =        1.0e-13                     
+cgdl = 0.0   
+cgsl = 0.0   
+clc = 7.0e-08   
+cle = 0.492   
+cf = 0.0   
+ckappas = 0.6   
+vfbcv = -1.0   
+acde = 0.44   
+moin = 8.7   
+noff = 2.6123   
+voffcv = 0.112   
***HIGH-SPEED/RF MODEL PARAMETERS******************************
+xrcrg1     =        12.0                        
+xrcrg2     =        1.0                         
+rbpb       =        50.0                        
+rbpd       =        50.0                        
+rbps       =        50.0                        
+rbdb       =        50.0                        
+rbsb       =        50.0                        
+gbmin      =        1.0e-12                     
***FLICKER AND THERMAL NOISE MODEL PARAMETERS******************
+ef         =        0.88                        
+noia       =        3.0e+41                     
+noib       =        0.0                         
+noic       =        0.0                         
+em         =        41000000.0                  
+ntnoi      =        1.0                         
+lintnoi    =        0.0                         
+af         =        1.0                         
+kf         =        0.0                         
+tnoia      =        25000000.0                  
+tnoib      =        0.0                         
+rnoia      =        0.69                        
+rnoib      =        0.34                        
***LAYOUT-DEPENDENT PARASITICS MODEL PARAMETERS****************
+xl         =        0.0                         
+xw         =        0.0                         
+dmcg       =        0.0                         
+dmdg       =        0.0                         
+dmcgt      =        0.0                         
+xgw        =        0.0                         
+xgl        =        0.0                         
+ngcon      =        1.0                         
***ASYMMETRIC SOURCE/DRAIN JUNCTION DIODE MODEL PARAMETERS*****
+jss        =        2.1483e-05                  
+jsws       =        1.4472e-10                  
+ijthsfwd   =        0.1                         
+ijthsrev   =        0.1                         
+bvs        =        12.69                       
+xjbvs      =        1.0                         
+pbs        =        0.6587                      
+cjs        =        0.0007144615823             
+mjs        =        0.3362                      
+pbsws      =        0.7418                      
+cjsws      =        8.55153728e-11              
+mjsws      =        0.2659                      
+pbswgs     =        1.4338                      
+cjswgs     =        2.232631466e-10             
+mjswgs     =        0.9274                      

***TEMPERATURE DEPENDENCE PARAMETERS***************************
+tnom       =        30.0                        
+kt1 = -6.112753625e-01   lkt1 = 7.910657830e-08   
+kt2 = -0.055045   
+at = 2.990885676e+05   lat = -1.075058399e-01   
+ute = -3.117702777e-01   lute = 7.098233271e-07   wute = 4.440892099e-22   
+ua1 = 6.683538954e-10   lua1 = 1.101163570e-16   
+ub1 = -1.752002700e-19   lub1 = 2.116892035e-25   
+uc1 = -9.961e-12   
+kt1l = 0.0   
+prt = 0.0   
+tvoff = 0.0   
+njs        =        1.3632                      
+tpb        =        0.001671                    
+tcj        =        0.0012407                   
+tpbsw      =        0.001246                    
+tcjsw      =        0.00037357                  
+tpbswg     =        0.0                         
+tcjswg     =        2.0e-12                     
+xtis       =        5.2                         
+tvfbsdoff  =        0.0                         
***DW AND DL PARAMETERS****************************************
+ll         =        0.0                         
+wl         =        0.0                         
+lln        =        1.0                         
+wln        =        1.0                         
+lw         =        0.0                         
+ww         =        0.0                         
+lwn        =        1.0                         
+wwn        =        1.0                         
+lwl        =        0.0                         
+wwl        =        0.0                         
+llc        =        0.0                         
+wlc        =        0.0                         
+lwc        =        0.0                         
+wwc        =        0.0                         
+lwlc       =        0.0                         
+wwlc       =        0.0                         
***STRESS PARAMETERS*******************************************
+saref      =        3.0e-06                     
+sbref      =        3.0e-06                     
+kvth0      =        1.76e-08                    
+lkvth0     =        0.0                         
+wkvth0     =        7.3e-07                     
+pkvth0     =        0.0                         
+llodvth    =        0.0                         
+wlodvth    =        1.0                         
+wlod       =        0.0                         
+stk2       =        0.0                         
+lodk2      =        1.0                         
+lodeta0    =        1.0                         
+ku0        =        5.9e-08                     
+lku0       =        0.0                         
+wku0       =        0.0                         
+pku0       =        0.0                         
+tku0       =        0.0                         
+llodku0    =        0.0                         
+wlodku0    =        1.0                         
+kvsat      =        0.0                         
+steta0     =        0.0                         
***WELL PROXIMITY EFFECT PARAMETERS****************************
******
