* BSIMTran Version 0.1.24, Created on 4-26-2002
* Username: qhc
* Command Line: /net/alexis/disk1/qhc/ICM_WA/qhc_ll65p25et_dev_125/config/cydir/bin/amd64/bsimtran pmos_bsim4.rf pmos -p -npshort pshort_leak_raw.pm3 pshort_leak.pm3 
* Working Directory: /proj/gpfs/qhc/s8-models/s8x/models.3.5/spice/benny
* Time: Wed Jan 14 14:38:38 2015
* Rule File:  pmos_bsim4.rf
* Output File:  pshort_leak.pm3
* Input Files:
* (1) pshort_leak_raw.pm3
*copyright, Cypress Semiconductor, 2007
*BSIM4.V5 PMOS Model

.model pshort.0 pmos
*
***MODEL FLAG PARAMETERS
*
+lmin = 2.0e-05   lmax = 0.0001   wmin = 7.0e-06   wmax = 0.0001   
+level      =        54.0                        
+version    =        4.5                         
+binunit    =        2.0                         
+mobmod     =        0.0                         
+capmod     =        2.0                         
+igcmod     =        0.0                         
+igbmod     =        0.0                         
+geomod     =        0.0                         
+diomod     =        1.0                         
+rdsmod     =        0.0                         
+rbodymod   =        1.0                         
+rgatemod   =        0.0                         
+permod     =        1.0                         
+acnqsmod   =        0.0                         
+trnqsmod   =        0.0                         
+fnoimod    =        1.0                         
+tnoimod    =        1.0                         
+tempmod    =        0.0                         
***PROCESS PARAMETERS
+toxe       =        4.01004e-09	
+toxm       =        4.23e-09                    
+dtox       =        0.0                         
+epsrox     =        3.9                         
+xj = 1.5e-07   
+ngate = 1.0e+23   
+ndep = 1.7e+17   
+nsd = 1.0e+20   
+rsh        =        1.0                         
+rshg       =        0.1                         
***BASIC MODEL PARAMETERS
+wint       =        -2.48711e-08	   
+lint       =        3.331e-09	   
+vth0 = -1.0578835	
+k1 = 0.43448553   
+k2 = 0.022159346   
+k3 = -15.845   
+k3b = 2.0   
+w0 = 0.0   
+dvt0 = 4.4955   
+dvt1 = 0.294   
+dvt2 = 0.015   
+dvt0w = -4.9772   
+dvt1w = 1147200.0   
+dvt2w = -0.00896   
+dsub = 0.56   
+minv = 0.0   
+voffl      =        0.0                         
+lpe0 = 0.0   
+lpeb = 0.0   
+vbm = -3.0   
+dvtp0 = 0.0   
+dvtp1 = 0.0   
+phin = 0.0   
+cdsc = 0.00013   
+cdscb = 0.00078   
+cdscd = 0.0   
+cit = 1.0e-05   
+voff = -0.60613645	
+nfactor = 5.2442058	
+eta0 = 0.08   
+etab = -0.07   
+u0 = 0.0112409	   
+ua = -5.6628421e-10   
+ub = 1.06194446e-18   
+uc = -6.6549964e-11   
+ud = 0.0   
+up = 0.0   
+lp = 1.0   
+eu = 1.67   
+vtl = 0.0   
+xn = 3.0   
+vsat = 160312.5   
+a0 = 1.158258   
+ags = 0.2979208   
+a1 = 0.0   
+a2 = 0.9995   
+b0 = 0.0   
+b1 = 0.0   
+keta = 0.0051290095   
+dwg = -5.722e-09   
+dwb = -1.7864e-08   
+pclm = 0.0015228006   
+pdiblc1 = 0.39   
+pdiblc2 = 0.0029632464   
+pdiblcb = -0.025   
+drout = 0.56   
+pscbe1 = 800000000.0   
+pscbe2 = 9.3760948e-09   
+pvag = 0.0   
+delta = 0.01   
+fprout = 0.0   
+pdits = 0.0   
+pditsl     =        0.0                         
+pditsd = 0.0   
+lambda     =        0.0                         
+lc         =        5.0e-09                     
***PARAMETERS FOR ASYMMETRIC AND BIAS-DEPENDENT RDS MODEL******
+rdsw = 547.88   
+rsw = 0.0   
+rdw = 0.0   
+rdswmin    =        0.0                         
+rdwmin     =        0.0                         
+rswmin     =        0.0                         
+prwb = -0.32348   
+prwg = 0.1376   
+wr = 1.0   
***IMPACT IONIZATION CURRENT MODEL PARAMTERS******************
+alpha0 = 1.0e-10   
+alpha1 = 1.0e-10   
+beta0 = 4.6464006   
***GIDL INDUCED DRAIN LEAKAGE MODEL PARAMETERS*****************
+agidl = 7.6323e-10   
+bgidl = 1181082000.0   
+cgidl = 300.0   
+egidl = 0.1   
***GATE DIELECTRIC TUNNELING CURRENT MODEL PARAMETERS**********
+toxref     =        4.23e-09                    
+dlcig = 0.0   
+aigbacc = 0.43   
+bigbacc = 0.054   
+cigbacc = 0.075   
+nigbacc = 1.0   
+aigbinv = 0.35   
+bigbinv = 0.03   
+cigbinv = 0.006   
+eigbinv = 1.1   
+nigbinv = 3.0   
+aigc = 0.43   
+bigc = 0.054   
+cigc = 0.075   
+aigsd = 0.43   
+bigsd = 0.054   
+cigsd = 0.075   
+nigc = 1.0   
+poxedge = 1.0   
+pigcd = 1.0   
+ntox = 1.0   
+vfbsdoff   =        0.0                         
***CHARGE AND CAPACITANCE MODEL PARAMETERS********************
+dlc        =        1.4325e-08                  
+dwc        =        -3.2175e-08                 
+xpart      =        0.0                         
+cgso       =        5.24898e-11                 
+cgdo       =        5.24898e-11                 
+cgbo       =        0.0                         
+cgdl = 9.5483718e-12   
+cgsl = 9.5483718e-12   
+clc = 1.0e-07   
+cle = 0.6   
+cf = 1.2e-11   
+ckappas = 0.6   
+vfbcv = -0.14469   
+acde = 0.8   
+moin = 18.13   
+noff = 3.9   
+voffcv = -0.10701   
***HIGH-SPEED/RF MODEL PARAMETERS******************************
+xrcrg1     =        12.0                        
+xrcrg2     =        1.0                         
+rbpb       =        50.0                        
+rbpd       =        50.0                        
+rbps       =        50.0                        
+rbdb       =        50.0                        
+rbsb       =        50.0                        
+gbmin      =        1.0e-12                     
***FLICKER AND THERMAL NOISE MODEL PARAMETERS******************
+ef         =        1.0                         
+noia       =        1.5e+42                     
+noib       =        0.0                         
+noic       =        0.0                         
+em         =        41000000.0                  
+ntnoi      =        1.0                         
+lintnoi    =        -2.0e-07                    
+af         =        1.0                         
+kf         =        0.0                         
+tnoia      =        25000000.0                  
+tnoib      =        0.0                         
+rnoia      =        0.69                        
+rnoib      =        0.34                        
***LAYOUT-DEPENDENT PARASITICS MODEL PARAMETERS****************
+xl         =        0.0                         
+xw         =        0.0                         
+dmcg       =        0.0                         
+dmdg       =        0.0                         
+dmcgt      =        0.0                         
+xgw        =        0.0                         
+xgl        =        0.0                         
+ngcon      =        1.0                         
***ASYMMETRIC SOURCE/DRAIN JUNCTION DIODE MODEL PARAMETERS*****
+jss        =        2.1483e-05                  
+jsws       =        8.04e-10                    
+ijthsfwd   =        0.1                         
+ijthsrev   =        0.1                         
+bvs        =        12.69                       
+xjbvs      =        1.0                         
+pbs        =        0.6587                      
+cjs        =        0.0006679036719             
+mjs        =        0.34629                     
+pbsws      =        0.7418                      
+cjsws      =        8.9499956e-11               
+mjsws      =        0.29781                     
+pbswgs     =        1.4338                      
+cjswgs     =        2.164485778e-10             
+mjswgs     =        0.9274                      

***TEMPERATURE DEPENDENCE PARAMETERS***************************
+tnom       =        30.0                        
+kt1 = -0.9388   
+kt2 = -0.0075706   
+at = 90900.0   
+ute = -0.33954   
+ua1 = 1.6104e-09   
+ub1 = -5.609e-19   
+uc1 = -1.0858e-10   
+kt1l = 0.0   
+prt = 0.0   
+tvoff = 0.0   
+njs        =        1.3632                      
+tpb        =        0.0020386                   
+tcj        =        0.0012407                   
+tpbsw      =        0.001246                    
+tcjsw      =        0.00037357                  
+tpbswg     =        0.0                         
+tcjswg     =        2.0e-12                     
+xtis       =        5.2                         
+tvfbsdoff  =        0.0                         
***DW AND DL PARAMETERS****************************************
+ll         =        0.0                         
+wl         =        0.0                         
+lln        =        1.0                         
+wln        =        1.0                         
+lw         =        0.0                         
+ww         =        0.0                         
+lwn        =        1.0                         
+wwn        =        1.0                         
+lwl        =        0.0                         
+wwl        =        0.0                         
+llc        =        0.0                         
+wlc        =        0.0                         
+lwc        =        0.0                         
+wwc        =        0.0                         
+lwlc       =        0.0                         
+wwlc       =        0.0                         
***STRESS PARAMETERS*******************************************
+saref      =        3.0e-06                     
+sbref      =        3.0e-06                     
+kvth0      =        3.29e-08                    
+lkvth0     =        0.0                         
+wkvth0     =        2.0e-07                     
+pkvth0     =        0.0                         
+llodvth    =        0.0                         
+wlodvth    =        1.0                         
+wlod       =        0.0                         
+stk2       =        0.0                         
+lodk2      =        1.0                         
+lodeta0    =        1.0                         
+ku0        =        4.5e-08                     
+lku0       =        0.0                         
+wku0       =        2.5e-07                     
+pku0       =        0.0                         
+tku0       =        0.0                         
+llodku0    =        0.0                         
+wlodku0    =        1.0                         
+kvsat      =        0.5                         
+steta0     =        0.0                         
***WELL PROXIMITY EFFECT PARAMETERS****************************
******

.model pshort.1 pmos
*
***MODEL FLAG PARAMETERS
*
+lmin = 8.0e-06   lmax = 2.0e-05   wmin = 7.0e-06   wmax = 0.0001   
+level      =        54.0                        
+version    =        4.5                         
+binunit    =        2.0                         
+mobmod     =        0.0                         
+capmod     =        2.0                         
+igcmod     =        0.0                         
+igbmod     =        0.0                         
+geomod     =        0.0                         
+diomod     =        1.0                         
+rdsmod     =        0.0                         
+rbodymod   =        1.0                         
+rgatemod   =        0.0                         
+permod     =        1.0                         
+acnqsmod   =        0.0                         
+trnqsmod   =        0.0                         
+fnoimod    =        1.0                         
+tnoimod    =        1.0                         
+tempmod    =        0.0                         
***PROCESS PARAMETERS
+toxe       =        4.01004e-09	
+toxm       =        4.23e-09                    
+dtox       =        0.0                         
+epsrox     =        3.9                         
+xj = 1.5e-07   
+ngate = 1.0e+23   
+ndep = 1.7e+17   
+nsd = 1.0e+20   
+rsh        =        1.0                         
+rshg       =        0.1                         
***BASIC MODEL PARAMETERS
+wint       =        -2.48711e-08	   
+lint       =        3.331e-09	   
+vth0 = -1.0578835	
+k1 = 0.43448553   
+k2 = 0.022159346   
+k3 = -15.845   
+k3b = 2.0   
+w0 = 0.0   
+dvt0 = 4.4955   
+dvt1 = 0.294   
+dvt2 = 0.015   
+dvt0w = -4.9772   
+dvt1w = 1147200.0   
+dvt2w = -0.00896   
+dsub = 0.56   
+minv = 0.0   
+voffl      =        0.0                         
+lpe0 = 0.0   
+lpeb = 0.0   
+vbm = -3.0   
+dvtp0 = 0.0   
+dvtp1 = 0.0   
+phin = 0.0   
+cdsc = 0.00013   
+cdscb = 0.00078   
+cdscd = 0.0   
+cit = 1.0e-05   
+voff = -0.60613645	
+nfactor = 5.2442058	
+eta0 = 0.08   
+etab = -0.07   
+u0 = 0.0112409	   
+ua = -5.6628421e-10   
+ub = 1.06194446e-18   
+uc = -6.6549964e-11   
+ud = 0.0   
+up = 0.0   
+lp = 1.0   
+eu = 1.67   
+vtl = 0.0   
+xn = 3.0   
+vsat = 160312.5   
+a0 = 1.158258   
+ags = 0.2979208   
+a1 = 0.0   
+a2 = 0.9995   
+b0 = 0.0   
+b1 = 0.0   
+keta = 0.0051290095   
+dwg = -5.722e-09   
+dwb = -1.7864e-08   
+pclm = 0.0015228006   
+pdiblc1 = 0.39   
+pdiblc2 = 0.0029632464   
+pdiblcb = -0.025   
+drout = 0.56   
+pscbe1 = 800000000.0   
+pscbe2 = 9.3760948e-09   
+pvag = 0.0   
+delta = 0.01   
+fprout = 0.0   
+pdits = 0.0   
+pditsl     =        0.0                         
+pditsd = 0.0   
+lambda     =        0.0                         
+lc         =        5.0e-09                     
***PARAMETERS FOR ASYMMETRIC AND BIAS-DEPENDENT RDS MODEL******
+rdsw = 547.88   
+rsw = 0.0   
+rdw = 0.0   
+rdswmin    =        0.0                         
+rdwmin     =        0.0                         
+rswmin     =        0.0                         
+prwb = -0.32348   
+prwg = 0.1376   
+wr = 1.0   
***IMPACT IONIZATION CURRENT MODEL PARAMTERS******************
+alpha0 = 1.0e-10   
+alpha1 = 1.0e-10   
+beta0 = 4.6464006   
***GIDL INDUCED DRAIN LEAKAGE MODEL PARAMETERS*****************
+agidl = 7.6323e-10   
+bgidl = 1181082000.0   
+cgidl = 300.0   
+egidl = 0.1   
***GATE DIELECTRIC TUNNELING CURRENT MODEL PARAMETERS**********
+toxref     =        4.23e-09                    
+dlcig = 0.0   
+aigbacc = 0.43   
+bigbacc = 0.054   
+cigbacc = 0.075   
+nigbacc = 1.0   
+aigbinv = 0.35   
+bigbinv = 0.03   
+cigbinv = 0.006   
+eigbinv = 1.1   
+nigbinv = 3.0   
+aigc = 0.43   
+bigc = 0.054   
+cigc = 0.075   
+aigsd = 0.43   
+bigsd = 0.054   
+cigsd = 0.075   
+nigc = 1.0   
+poxedge = 1.0   
+pigcd = 1.0   
+ntox = 1.0   
+vfbsdoff   =        0.0                         
***CHARGE AND CAPACITANCE MODEL PARAMETERS********************
+dlc        =        1.4325e-08                  
+dwc        =        -3.2175e-08                 
+xpart      =        0.0                         
+cgso       =        5.24898e-11                 
+cgdo       =        5.24898e-11                 
+cgbo       =        0.0                         
+cgdl = 9.5483718e-12   
+cgsl = 9.5483718e-12   
+clc = 1.0e-07   
+cle = 0.6   
+cf = 1.2e-11   
+ckappas = 0.6   
+vfbcv = -0.14469   
+acde = 0.8   
+moin = 18.13   
+noff = 3.9   
+voffcv = -0.10701   
***HIGH-SPEED/RF MODEL PARAMETERS******************************
+xrcrg1     =        12.0                        
+xrcrg2     =        1.0                         
+rbpb       =        50.0                        
+rbpd       =        50.0                        
+rbps       =        50.0                        
+rbdb       =        50.0                        
+rbsb       =        50.0                        
+gbmin      =        1.0e-12                     
***FLICKER AND THERMAL NOISE MODEL PARAMETERS******************
+ef         =        1.0                         
+noia       =        1.5e+42                     
+noib       =        0.0                         
+noic       =        0.0                         
+em         =        41000000.0                  
+ntnoi      =        1.0                         
+lintnoi    =        -2.0e-07                    
+af         =        1.0                         
+kf         =        0.0                         
+tnoia      =        25000000.0                  
+tnoib      =        0.0                         
+rnoia      =        0.69                        
+rnoib      =        0.34                        
***LAYOUT-DEPENDENT PARASITICS MODEL PARAMETERS****************
+xl         =        0.0                         
+xw         =        0.0                         
+dmcg       =        0.0                         
+dmdg       =        0.0                         
+dmcgt      =        0.0                         
+xgw        =        0.0                         
+xgl        =        0.0                         
+ngcon      =        1.0                         
***ASYMMETRIC SOURCE/DRAIN JUNCTION DIODE MODEL PARAMETERS*****
+jss        =        2.1483e-05                  
+jsws       =        8.04e-10                    
+ijthsfwd   =        0.1                         
+ijthsrev   =        0.1                         
+bvs        =        12.69                       
+xjbvs      =        1.0                         
+pbs        =        0.6587                      
+cjs        =        0.0006679036719             
+mjs        =        0.34629                     
+pbsws      =        0.7418                      
+cjsws      =        8.9499956e-11               
+mjsws      =        0.29781                     
+pbswgs     =        1.4338                      
+cjswgs     =        2.164485778e-10             
+mjswgs     =        0.9274                      

***TEMPERATURE DEPENDENCE PARAMETERS***************************
+tnom       =        30.0                        
+kt1 = -0.9388   
+kt2 = -0.0075706   
+at = 90900.0   
+ute = -0.33954   
+ua1 = 1.6104e-09   
+ub1 = -5.609e-19   
+uc1 = -1.0858e-10   
+kt1l = 0.0   
+prt = 0.0   
+tvoff = 0.0   
+njs        =        1.3632                      
+tpb        =        0.0020386                   
+tcj        =        0.0012407                   
+tpbsw      =        0.001246                    
+tcjsw      =        0.00037357                  
+tpbswg     =        0.0                         
+tcjswg     =        2.0e-12                     
+xtis       =        5.2                         
+tvfbsdoff  =        0.0                         
***DW AND DL PARAMETERS****************************************
+ll         =        0.0                         
+wl         =        0.0                         
+lln        =        1.0                         
+wln        =        1.0                         
+lw         =        0.0                         
+ww         =        0.0                         
+lwn        =        1.0                         
+wwn        =        1.0                         
+lwl        =        0.0                         
+wwl        =        0.0                         
+llc        =        0.0                         
+wlc        =        0.0                         
+lwc        =        0.0                         
+wwc        =        0.0                         
+lwlc       =        0.0                         
+wwlc       =        0.0                         
***STRESS PARAMETERS*******************************************
+saref      =        3.0e-06                     
+sbref      =        3.0e-06                     
+kvth0      =        3.29e-08                    
+lkvth0     =        0.0                         
+wkvth0     =        2.0e-07                     
+pkvth0     =        0.0                         
+llodvth    =        0.0                         
+wlodvth    =        1.0                         
+wlod       =        0.0                         
+stk2       =        0.0                         
+lodk2      =        1.0                         
+lodeta0    =        1.0                         
+ku0        =        4.5e-08                     
+lku0       =        0.0                         
+wku0       =        2.5e-07                     
+pku0       =        0.0                         
+tku0       =        0.0                         
+llodku0    =        0.0                         
+wlodku0    =        1.0                         
+kvsat      =        0.5                         
+steta0     =        0.0                         
***WELL PROXIMITY EFFECT PARAMETERS****************************
******

.model pshort.2 pmos
*
***MODEL FLAG PARAMETERS
*
+lmin = 4.0e-06   lmax = 8.0e-06   wmin = 7.0e-06   wmax = 0.0001   
+level      =        54.0                        
+version    =        4.5                         
+binunit    =        2.0                         
+mobmod     =        0.0                         
+capmod     =        2.0                         
+igcmod     =        0.0                         
+igbmod     =        0.0                         
+geomod     =        0.0                         
+diomod     =        1.0                         
+rdsmod     =        0.0                         
+rbodymod   =        1.0                         
+rgatemod   =        0.0                         
+permod     =        1.0                         
+acnqsmod   =        0.0                         
+trnqsmod   =        0.0                         
+fnoimod    =        1.0                         
+tnoimod    =        1.0                         
+tempmod    =        0.0                         
***PROCESS PARAMETERS
+toxe       =        4.01004e-09	
+toxm       =        4.23e-09                    
+dtox       =        0.0                         
+epsrox     =        3.9                         
+xj = 1.5e-07   
+ngate = 1.0e+23   
+ndep = 1.7e+17   
+nsd = 1.0e+20   
+rsh        =        1.0                         
+rshg       =        0.1                         
***BASIC MODEL PARAMETERS
+wint       =        -2.48711e-08	   
+lint       =        3.331e-09	   
+vth0 = -1.057595608e+00	
+k1 = 4.342113787e-01   lk1 = 2.191384188e-09   wk1 = 2.742876919e-08   pk1 = -2.192474230e-13   
+k2 = 2.222498648e-02   lk2 = -5.246865635e-10   wk2 = -6.567313357e-09   pk2 = 5.249475541e-14   
+k3 = -15.845   
+k3b = 2.0   
+w0 = 0.0   
+dvt0 = 4.4955   
+dvt1 = 0.294   
+dvt2 = 0.015   
+dvt0w = -4.9772   
+dvt1w = 1147200.0   
+dvt2w = -0.00896   
+dsub = 0.56   
+minv = 0.0   
+voffl      =        0.0                         
+lpe0 = 0.0   
+lpeb = 0.0   
+vbm = -3.0   
+dvtp0 = 0.0   
+dvtp1 = 0.0   
+phin = 0.0   
+cdsc = 0.00013   
+cdscb = 0.00078   
+cdscd = 0.0   
+cit = 1.0e-05   
+voff = -6.058152213e-01	
+nfactor = 5.258288257e+00	
+eta0 = 0.08   
+etab = -0.07   
+u0 = 1.125922907e-02	   lu0 = -1.465104773e-10   wu0 = -1.833819048e-09   pu0 = 1.465833548e-14   
+ua = -5.652614243e-10   lua = -8.175472155e-18   wua = -1.023294500e-16   pua = 8.179538814e-22   
+ub = 1.063027760e-18   lub = -8.659186597e-27   wub = -1.083839301e-25   pub = 8.663493867e-31   
+uc = -6.604829439e-11   luc = -4.010014749e-18   wuc = -5.019191505e-17   puc = 4.012009419e-22   
+ud = 0.0   
+up = 0.0   
+lp = 1.0   
+eu = 1.67   
+vtl = 0.0   
+xn = 3.0   
+vsat = 1.522244748e+05   lvsat = 6.465031898e-02   wvsat = 8.092048337e-01   pvsat = -6.468247747e-06   
+a0 = 1.153685948e+00   la0 = 3.654595575e-08   wa0 = 4.574326085e-07   pa0 = -3.656413452e-12   
+ags = 3.011253637e-01   lags = -2.561516111e-08   wags = -3.206157759e-07   pags = 2.562790265e-12   
+a1 = 0.0   
+a2 = 9.844023530e-01   la2 = 1.206805954e-07   wa2 = 1.510515690e-06   pa2 = -1.207406246e-11   
+b0 = 0.0   
+b1 = 0.0   
+keta = 3.901948089e-03   lketa = 9.808316603e-09   wketa = 1.227671778e-07   pketa = -9.813195476e-13   
+dwg = -5.722e-09   
+dwb = -1.7864e-08   
+pclm = 3.422302272e-02   lpclm = -2.613839281e-07   wpclm = -3.271648793e-06   ppclm = 2.615139462e-11   
+pdiblc1 = 0.39   
+pdiblc2 = 2.750872898e-03   lpdiblc2 = 1.697573183e-09   wpdiblc2 = 2.124791411e-08   ppdiblc2 = -1.698417593e-13   
+pdiblcb = -0.025   
+drout = 0.56   
+pscbe1 = 800000000.0   
+pscbe2 = 9.318556706e-09   lpscbe2 = 4.599214316e-16   wpscbe2 = 5.756671451e-15   ppscbe2 = -4.601502066e-20   
+pvag = 0.0   
+delta = 0.01   
+fprout = 0.0   
+pdits = 0.0   
+pditsl     =        0.0                         
+pditsd = 0.0   
+lambda     =        0.0                         
+lc         =        5.0e-09                     
***PARAMETERS FOR ASYMMETRIC AND BIAS-DEPENDENT RDS MODEL******
+rdsw = 547.88   
+rsw = 0.0   
+rdw = 0.0   
+rdswmin    =        0.0                         
+rdwmin     =        0.0                         
+rswmin     =        0.0                         
+prwb = -0.32348   
+prwg = 0.1376   
+wr = 1.0   
***IMPACT IONIZATION CURRENT MODEL PARAMTERS******************
+alpha0 = 1.0e-10   
+alpha1 = 1.0e-10   
+beta0 = 4.751757641e+00   lbeta0 = -8.421544426e-07   wbeta0 = -1.054094483e-05   pbeta0 = 8.425733487e-11   
***GIDL INDUCED DRAIN LEAKAGE MODEL PARAMETERS*****************
+agidl = 7.217844685e-10   lagidl = 3.312881422e-16   wagidl = 4.146614746e-15   pagidl = -3.314529322e-20   
+bgidl = 1.167378180e+09   lbgidl = 1.095392661e+02   wbgidl = 1.371063670e+03   pbgidl = -1.095937533e-02   
+cgidl = 300.0   
+egidl = 0.1   
***GATE DIELECTRIC TUNNELING CURRENT MODEL PARAMETERS**********
+toxref     =        4.23e-09                    
+dlcig = 0.0   
+aigbacc = 0.43   
+bigbacc = 0.054   
+cigbacc = 0.075   
+nigbacc = 1.0   
+aigbinv = 0.35   
+bigbinv = 0.03   
+cigbinv = 0.006   
+eigbinv = 1.1   
+nigbinv = 3.0   
+aigc = 0.43   
+bigc = 0.054   
+cigc = 0.075   
+aigsd = 0.43   
+bigsd = 0.054   
+cigsd = 0.075   
+nigc = 1.0   
+poxedge = 1.0   
+pigcd = 1.0   
+ntox = 1.0   
+vfbsdoff   =        0.0                         
***CHARGE AND CAPACITANCE MODEL PARAMETERS********************
+dlc        =        1.4325e-08                  
+dwc        =        -3.2175e-08                 
+xpart      =        0.0                         
+cgso       =        5.24898e-11                 
+cgdo       =        5.24898e-11                 
+cgbo       =        0.0                         
+cgdl = 9.5483718e-12   
+cgsl = 9.5483718e-12   
+clc = 1.0e-07   
+cle = 0.6   
+cf = 1.2e-11   
+ckappas = 0.6   
+vfbcv = -0.14469   
+acde = 0.8   
+moin = 18.13   
+noff = 3.9   
+voffcv = -0.10701   
***HIGH-SPEED/RF MODEL PARAMETERS******************************
+xrcrg1     =        12.0                        
+xrcrg2     =        1.0                         
+rbpb       =        50.0                        
+rbpd       =        50.0                        
+rbps       =        50.0                        
+rbdb       =        50.0                        
+rbsb       =        50.0                        
+gbmin      =        1.0e-12                     
***FLICKER AND THERMAL NOISE MODEL PARAMETERS******************
+ef         =        1.0                         
+noia       =        1.5e+42                     
+noib       =        0.0                         
+noic       =        0.0                         
+em         =        41000000.0                  
+ntnoi      =        1.0                         
+lintnoi    =        -2.0e-07                    
+af         =        1.0                         
+kf         =        0.0                         
+tnoia      =        25000000.0                  
+tnoib      =        0.0                         
+rnoia      =        0.69                        
+rnoib      =        0.34                        
***LAYOUT-DEPENDENT PARASITICS MODEL PARAMETERS****************
+xl         =        0.0                         
+xw         =        0.0                         
+dmcg       =        0.0                         
+dmdg       =        0.0                         
+dmcgt      =        0.0                         
+xgw        =        0.0                         
+xgl        =        0.0                         
+ngcon      =        1.0                         
***ASYMMETRIC SOURCE/DRAIN JUNCTION DIODE MODEL PARAMETERS*****
+jss        =        2.1483e-05                  
+jsws       =        8.04e-10                    
+ijthsfwd   =        0.1                         
+ijthsrev   =        0.1                         
+bvs        =        12.69                       
+xjbvs      =        1.0                         
+pbs        =        0.6587                      
+cjs        =        0.0006679036719             
+mjs        =        0.34629                     
+pbsws      =        0.7418                      
+cjsws      =        8.9499956e-11               
+mjsws      =        0.29781                     
+pbswgs     =        1.4338                      
+cjswgs     =        2.164485778e-10             
+mjswgs     =        0.9274                      

***TEMPERATURE DEPENDENCE PARAMETERS***************************
+tnom       =        30.0                        
+kt1 = -9.079397844e-01   lkt1 = -2.466761337e-07   wkt1 = -3.087556610e-06   pkt1 = 2.467988358e-11   
+kt2 = -8.876314968e-03   lkt2 = 1.043702107e-08   wkt2 = 1.306364459e-07   pkt2 = -1.044221267e-12   
+at = 9.112845275e+04   lat = -1.826100055e-03   wat = -2.285663884e-02   pat = 1.827008398e-07   
+ute = -3.294032779e-01   lute = -8.102624629e-08   wute = -1.014176437e-06   pute = 8.106655053e-12   
+ua1 = 1.639448350e-09   lua1 = -2.321932766e-16   wua1 = -2.906279887e-15   pua1 = 2.323087746e-20   
+ub1 = -5.805524232e-19   lub1 = 1.570884611e-25   wub1 = 1.966219874e-24   pub1 = -1.571666004e-29   
+uc1 = -1.101038498e-10   luc1 = 1.218064637e-17   wuc1 = 1.524607779e-16   puc1 = -1.218670529e-21   
+kt1l = 0.0   
+prt = 0.0   
+tvoff = 0.0   
+njs        =        1.3632                      
+tpb        =        0.0020386                   
+tcj        =        0.0012407                   
+tpbsw      =        0.001246                    
+tcjsw      =        0.00037357                  
+tpbswg     =        0.0                         
+tcjswg     =        2.0e-12                     
+xtis       =        5.2                         
+tvfbsdoff  =        0.0                         
***DW AND DL PARAMETERS****************************************
+ll         =        0.0                         
+wl         =        0.0                         
+lln        =        1.0                         
+wln        =        1.0                         
+lw         =        0.0                         
+ww         =        0.0                         
+lwn        =        1.0                         