* BSIMTran Version 0.1.24, Created on 4-26-2002
* Username: qhc
* Command Line: /net/alexis/disk1/qhc/ICM_WA/qhc_ll65p25et_dev_125/config/cydir/bin/amd64/bsimtran pmos_bsim4.rf pmos -p -npshort pshort_ff_raw.pm3 pshort_ff.pm3 
* Working Directory: /proj/gpfs/qhc/s8-models/s8x/models.3.5/spice/benny
* Time: Wed Jan 14 14:38:03 2015
* Rule File:  pmos_bsim4.rf
* Output File:  pshort_ff.pm3
* Input Files:
* (1) pshort_ff_raw.pm3
*copyright, Cypress Semiconductor, 2007
*BSIM4.V5 PMOS Model

.model pshort.0 pmos
*
***MODEL FLAG PARAMETERS
*
+lmin = 2.0e-05   lmax = 0.0001   wmin = 7.0e-06   wmax = 0.0001   
+level      =        54.0                        
+version    =        4.5                         
+binunit    =        2.0                         
+mobmod     =        0.0                         
+capmod     =        2.0                         
+igcmod     =        0.0                         
+igbmod     =        0.0                         
+geomod     =        0.0                         
+diomod     =        1.0                         
+rdsmod     =        0.0                         
+rbodymod   =        1.0                         
+rgatemod   =        0.0                         
+permod     =        1.0                         
+acnqsmod   =        0.0                         
+trnqsmod   =        0.0                         
+fnoimod    =        1.0                         
+tnoimod    =        1.0                         
+tempmod    =        0.0                         
***PROCESS PARAMETERS
+toxe       =        4.075605e-09	
+toxm       =        4.23e-09                    
+dtox       =        0.0                         
+epsrox     =        3.9                         
+xj = 1.5e-07   
+ngate = 1.0e+23   
+ndep = 1.7e+17   
+nsd = 1.0e+20   
+rsh        =        1.0                         
+rshg       =        0.1                         
***BASIC MODEL PARAMETERS
+wint       =        -1.52161e-08	   
+lint       =        -1.8665e-09	   
+vth0 = -1.0498303	
+k1 = 0.43448553   
+k2 = 0.021784346   
+k3 = -15.845   
+k3b = 2.0   
+w0 = 0.0   
+dvt0 = 4.4955   
+dvt1 = 0.294   
+dvt2 = 0.015   
+dvt0w = -4.9772   
+dvt1w = 1147200.0   
+dvt2w = -0.00896   
+dsub = 0.56   
+minv = 0.0   
+voffl      =        0.0                         
+lpe0 = 0.0   
+lpeb = 0.0   
+vbm = -3.0   
+dvtp0 = 0.0   
+dvtp1 = 0.0   
+phin = 0.0   
+cdsc = 0.00013   
+cdscb = 0.00078   
+cdscd = 0.0   
+cit = 1.0e-05   
+voff = -0.28370745	
+nfactor = 1.3961358	
+eta0 = 0.08   
+etab = -0.07   
+u0 = 0.0104306	   
+ua = -5.9240701e-10   
+ub = 9.3030446e-19   
+uc = -6.6549964e-11   
+ud = 0.0   
+up = 0.0   
+lp = 1.0   
+eu = 1.67   
+vtl = 0.0   
+xn = 3.0   
+vsat = 160312.5   
+a0 = 1.171369   
+ags = 0.2846738   
+a1 = 0.0   
+a2 = 0.9995   
+b0 = 0.0   
+b1 = 0.0   
+keta = 0.0051290095   
+dwg = -5.722e-09   
+dwb = -1.7864e-08   
+pclm = 0.0015228006   
+pdiblc1 = 0.39   
+pdiblc2 = 0.0029632464   
+pdiblcb = -0.025   
+drout = 0.56   
+pscbe1 = 800000000.0   
+pscbe2 = 9.3760948e-09   
+pvag = 0.0   
+delta = 0.01   
+fprout = 0.0   
+pdits = 0.0   
+pditsl     =        0.0                         
+pditsd = 0.0   
+lambda     =        0.0                         
+lc         =        5.0e-09                     
***PARAMETERS FOR ASYMMETRIC AND BIAS-DEPENDENT RDS MODEL******
+rdsw = 547.88   
+rsw = 0.0   
+rdw = 0.0   
+rdswmin    =        0.0                         
+rdwmin     =        0.0                         
+rswmin     =        0.0                         
+prwb = -0.32348   
+prwg = 0.1376   
+wr = 1.0   
***IMPACT IONIZATION CURRENT MODEL PARAMTERS******************
+alpha0 = 1.0e-10   
+alpha1 = 1.0e-10   
+beta0 = 4.6464006   
***GIDL INDUCED DRAIN LEAKAGE MODEL PARAMETERS*****************
+agidl = 1.0e-10   
+bgidl = 1181082000.0   
+cgidl = 300.0   
+egidl = 0.1   
***GATE DIELECTRIC TUNNELING CURRENT MODEL PARAMETERS**********
+toxref     =        4.23e-09                    
+dlcig = 0.0   
+aigbacc = 0.43   
+bigbacc = 0.054   
+cigbacc = 0.075   
+nigbacc = 1.0   
+aigbinv = 0.35   
+bigbinv = 0.03   
+cigbinv = 0.006   
+eigbinv = 1.1   
+nigbinv = 3.0   
+aigc = 0.43   
+bigc = 0.054   
+cigc = 0.075   
+aigsd = 0.43   
+bigsd = 0.054   
+cigsd = 0.075   
+nigc = 1.0   
+poxedge = 1.0   
+pigcd = 1.0   
+ntox = 1.0   
+vfbsdoff   =        0.0                         
***CHARGE AND CAPACITANCE MODEL PARAMETERS********************
+dlc        =        9.1275e-09                  
+dwc        =        -2.252e-08                  
+xpart      =        0.0                         
+cgso       =        4.86838e-11                 
+cgdo       =        4.86838e-11                 
+cgbo       =        0.0                         
+cgdl = 8.8560258e-12   
+cgsl = 8.8560258e-12   
+clc = 1.0e-07   
+cle = 0.6   
+cf = 1.2e-11   
+ckappas = 0.6   
+vfbcv = -0.14469   
+acde = 0.8   
+moin = 18.13   
+noff = 3.9   
+voffcv = -0.10701   
***HIGH-SPEED/RF MODEL PARAMETERS******************************
+xrcrg1     =        12.0                        
+xrcrg2     =        1.0                         
+rbpb       =        50.0                        
+rbpd       =        50.0                        
+rbps       =        50.0                        
+rbdb       =        50.0                        
+rbsb       =        50.0                        
+gbmin      =        1.0e-12                     
***FLICKER AND THERMAL NOISE MODEL PARAMETERS******************
+ef         =        1.0                         
+noia       =        1.5e+42                     
+noib       =        0.0                         
+noic       =        0.0                         
+em         =        41000000.0                  
+ntnoi      =        1.0                         
+lintnoi    =        -2.0e-07                    
+af         =        1.0                         
+kf         =        0.0                         
+tnoia      =        25000000.0                  
+tnoib      =        0.0                         
+rnoia      =        0.69                        
+rnoib      =        0.34                        
***LAYOUT-DEPENDENT PARASITICS MODEL PARAMETERS****************
+xl         =        0.0                         
+xw         =        0.0                         
+dmcg       =        0.0                         
+dmdg       =        0.0                         
+dmcgt      =        0.0                         
+xgw        =        0.0                         
+xgl        =        0.0                         
+ngcon      =        1.0                         
***ASYMMETRIC SOURCE/DRAIN JUNCTION DIODE MODEL PARAMETERS*****
+jss        =        2.1483e-05                  
+jsws       =        8.04e-10                    
+ijthsfwd   =        0.1                         
+ijthsrev   =        0.1                         
+bvs        =        12.69                       
+xjbvs      =        1.0                         
+pbs        =        0.6587                      
+cjs        =        0.0006889421079             
+mjs        =        0.34629                     
+pbsws      =        0.7418                      
+cjsws      =        9.2317732e-11               
+mjsws      =        0.29781                     
+pbswgs     =        1.4338                      
+cjswgs     =        2.232631466e-10             
+mjswgs     =        0.9274                      

***TEMPERATURE DEPENDENCE PARAMETERS***************************
+tnom       =        30.0                        
+kt1 = -0.4485   
+kt2 = -0.0075706   
+at = 90900.0   
+ute = -0.33954   
+ua1 = 1.6104e-09   
+ub1 = -5.609e-19   
+uc1 = -1.0858e-10   
+kt1l = 0.0   
+prt = 0.0   
+tvoff = 0.0   
+njs        =        1.3632                      
+tpb        =        0.0020386                   
+tcj        =        0.0012407                   
+tpbsw      =        0.001246                    
+tcjsw      =        0.00037357                  
+tpbswg     =        0.0                         
+tcjswg     =        2.0e-12                     
+xtis       =        5.2                         
+tvfbsdoff  =        0.0                         
***DW AND DL PARAMETERS****************************************
+ll         =        0.0                         
+wl         =        0.0                         
+lln        =        1.0                         
+wln        =        1.0                         
+lw         =        0.0                         
+ww         =        0.0                         
+lwn        =        1.0                         
+wwn        =        1.0                         
+lwl        =        0.0                         
+wwl        =        0.0                         
+llc        =        0.0                         
+wlc        =        0.0                         
+lwc        =        0.0                         
+wwc        =        0.0                         
+lwlc       =        0.0                         
+wwlc       =        0.0                         
***STRESS PARAMETERS*******************************************
+saref      =        3.0e-06                     
+sbref      =        3.0e-06                     
+kvth0      =        3.29e-08                    
+lkvth0     =        0.0                         
+wkvth0     =        2.0e-07                     
+pkvth0     =        0.0                         
+llodvth    =        0.0                         
+wlodvth    =        1.0                         
+wlod       =        0.0                         
+stk2       =        0.0                         
+lodk2      =        1.0                         
+lodeta0    =        1.0                         
+ku0        =        4.5e-08                     
+lku0       =        0.0                         
+wku0       =        2.5e-07                     
+pku0       =        0.0                         
+tku0       =        0.0                         
+llodku0    =        0.0                         
+wlodku0    =        1.0                         
+kvsat      =        0.5                         
+steta0     =        0.0                         
***WELL PROXIMITY EFFECT PARAMETERS****************************
******

.model pshort.1 pmos
*
***MODEL FLAG PARAMETERS
*
+lmin = 8.0e-06   lmax = 2.0e-05   wmin = 7.0e-06   wmax = 0.0001   
+level      =        54.0                        
+version    =        4.5                         
+binunit    =        2.0                         
+mobmod     =        0.0                         
+capmod     =        2.0                         
+igcmod     =        0.0                         
+igbmod     =        0.0                         
+geomod     =        0.0                         
+diomod     =        1.0                         
+rdsmod     =        0.0                         
+rbodymod   =        1.0                         
+rgatemod   =        0.0                         
+permod     =        1.0                         
+acnqsmod   =        0.0                         
+trnqsmod   =        0.0                         
+fnoimod    =        1.0                         
+tnoimod    =        1.0                         
+tempmod    =        0.0                         
***PROCESS PARAMETERS
+toxe       =        4.075605e-09	
+toxm       =        4.23e-09                    
+dtox       =        0.0                         
+epsrox     =        3.9                         
+xj = 1.5e-07   
+ngate = 1.0e+23   
+ndep = 1.7e+17   
+nsd = 1.0e+20   
+rsh        =        1.0                         
+rshg       =        0.1                         
***BASIC MODEL PARAMETERS
+wint       =        -1.52161e-08	   
+lint       =        -1.8665e-09	   
+vth0 = -1.0498303	
+k1 = 0.43448553   
+k2 = 0.021784346   
+k3 = -15.845   
+k3b = 2.0   
+w0 = 0.0   
+dvt0 = 4.4955   
+dvt1 = 0.294   
+dvt2 = 0.015   
+dvt0w = -4.9772   
+dvt1w = 1147200.0   
+dvt2w = -0.00896   
+dsub = 0.56   
+minv = 0.0   
+voffl      =        0.0                         
+lpe0 = 0.0   
+lpeb = 0.0   
+vbm = -3.0   
+dvtp0 = 0.0   
+dvtp1 = 0.0   
+phin = 0.0   
+cdsc = 0.00013   
+cdscb = 0.00078   
+cdscd = 0.0   
+cit = 1.0e-05   
+voff = -0.28370745	
+nfactor = 1.3961358	
+eta0 = 0.08   
+etab = -0.07   
+u0 = 0.0104306	   
+ua = -5.9240701e-10   
+ub = 9.3030446e-19   
+uc = -6.6549964e-11   
+ud = 0.0   
+up = 0.0   
+lp = 1.0   
+eu = 1.67   
+vtl = 0.0   
+xn = 3.0   
+vsat = 160312.5   
+a0 = 1.171369   
+ags = 0.2846738   
+a1 = 0.0   
+a2 = 0.9995   
+b0 = 0.0   
+b1 = 0.0   
+keta = 0.0051290095   
+dwg = -5.722e-09   
+dwb = -1.7864e-08   
+pclm = 0.0015228006   
+pdiblc1 = 0.39   
+pdiblc2 = 0.0029632464   
+pdiblcb = -0.025   
+drout = 0.56   
+pscbe1 = 800000000.0   
+pscbe2 = 9.3760948e-09   
+pvag = 0.0   
+delta = 0.01   
+fprout = 0.0   
+pdits = 0.0   
+pditsl     =        0.0                         
+pditsd = 0.0   
+lambda     =        0.0                         
+lc         =        5.0e-09                     
***PARAMETERS FOR ASYMMETRIC AND BIAS-DEPENDENT RDS MODEL******
+rdsw = 547.88   
+rsw = 0.0   
+rdw = 0.0   
+rdswmin    =        0.0                         
+rdwmin     =        0.0                         
+rswmin     =        0.0                         
+prwb = -0.32348   
+prwg = 0.1376   
+wr = 1.0   
***IMPACT IONIZATION CURRENT MODEL PARAMTERS******************
+alpha0 = 1.0e-10   
+alpha1 = 1.0e-10   
+beta0 = 4.6464006   
***GIDL INDUCED DRAIN LEAKAGE MODEL PARAMETERS*****************
+agidl = 1.0e-10   
+bgidl = 1181082000.0   
+cgidl = 300.0   
+egidl = 0.1   
***GATE DIELECTRIC TUNNELING CURRENT MODEL PARAMETERS**********
+toxref     =        4.23e-09                    
+dlcig = 0.0   
+aigbacc = 0.43   
+bigbacc = 0.054   
+cigbacc = 0.075   
+nigbacc = 1.0   
+aigbinv = 0.35   
+bigbinv = 0.03   
+cigbinv = 0.006   
+eigbinv = 1.1   
+nigbinv = 3.0   
+aigc = 0.43   
+bigc = 0.054   
+cigc = 0.075   
+aigsd = 0.43   
+bigsd = 0.054   
+cigsd = 0.075   
+nigc = 1.0   
+poxedge = 1.0   
+pigcd = 1.0   
+ntox = 1.0   
+vfbsdoff   =        0.0                         
***CHARGE AND CAPACITANCE MODEL PARAMETERS********************
+dlc        =        9.1275e-09                  
+dwc        =        -2.252e-08                  
+xpart      =        0.0                         
+cgso       =        4.86838e-11                 
+cgdo       =        4.86838e-11                 
+cgbo       =        0.0                         
+cgdl = 8.8560258e-12   
+cgsl = 8.8560258e-12   
+clc = 1.0e-07   
+cle = 0.6   
+cf = 1.2e-11   
+ckappas = 0.6   
+vfbcv = -0.14469   
+acde = 0.8   
+moin = 18.13   
+noff = 3.9   
+voffcv = -0.10701   
***HIGH-SPEED/RF MODEL PARAMETERS******************************
+xrcrg1     =        12.0                        
+xrcrg2     =        1.0                         
+rbpb       =        50.0                        
+rbpd       =        50.0                        
+rbps       =        50.0                        
+rbdb       =        50.0                        
+rbsb       =        50.0                        
+gbmin      =        1.0e-12                     
***FLICKER AND THERMAL NOISE MODEL PARAMETERS******************
+ef         =        1.0                         
+noia       =        1.5e+42                     
+noib       =        0.0                         
+noic       =        0.0                         
+em         =        41000000.0                  
+ntnoi      =        1.0                         
+lintnoi    =        -2.0e-07                    
+af         =        1.0                         
+kf         =        0.0                         
+tnoia      =        25000000.0                  
+tnoib      =        0.0                         
+rnoia      =        0.69                        
+rnoib      =        0.34                        
***LAYOUT-DEPENDENT PARASITICS MODEL PARAMETERS****************
+xl         =        0.0                         
+xw         =        0.0                         
+dmcg       =        0.0                         
+dmdg       =        0.0                         
+dmcgt      =        0.0                         
+xgw        =        0.0                         
+xgl        =        0.0                         
+ngcon      =        1.0                         
***ASYMMETRIC SOURCE/DRAIN JUNCTION DIODE MODEL PARAMETERS*****
+jss        =        2.1483e-05                  
+jsws       =        8.04e-10                    
+ijthsfwd   =        0.1                         
+ijthsrev   =        0.1                         
+bvs        =        12.69                       
+xjbvs      =        1.0                         
+pbs        =        0.6587                      
+cjs        =        0.0006889421079             
+mjs        =        0.34629                     
+pbsws      =        0.7418                      
+cjsws      =        9.2317732e-11               
+mjsws      =        0.29781                     
+pbswgs     =        1.4338                      
+cjswgs     =        2.232631466e-10             
+mjswgs     =        0.9274                      

***TEMPERATURE DEPENDENCE PARAMETERS***************************
+tnom       =        30.0                        
+kt1 = -0.4485   
+kt2 = -0.0075706   
+at = 90900.0   
+ute = -0.33954   
+ua1 = 1.6104e-09   
+ub1 = -5.609e-19   
+uc1 = -1.0858e-10   
+kt1l = 0.0   
+prt = 0.0   
+tvoff = 0.0   
+njs        =        1.3632                      
+tpb        =        0.0020386                   
+tcj        =        0.0012407                   
+tpbsw      =        0.001246                    
+tcjsw      =        0.00037357                  
+tpbswg     =        0.0                         
+tcjswg     =        2.0e-12                     
+xtis       =        5.2                         
+tvfbsdoff  =        0.0                         
***DW AND DL PARAMETERS****************************************
+ll         =        0.0                         
+wl         =        0.0                         
+lln        =        1.0                         
+wln        =        1.0                         
+lw         =        0.0                         
+ww         =        0.0                         
+lwn        =        1.0                         
+wwn        =        1.0                         
+lwl        =        0.0                         
+wwl        =        0.0                         
+llc        =        0.0                         
+wlc        =        0.0                         
+lwc        =        0.0                         
+wwc        =        0.0                         
+lwlc       =        0.0                         
+wwlc       =        0.0                         
***STRESS PARAMETERS*******************************************
+saref      =        3.0e-06                     
+sbref      =        3.0e-06                     
+kvth0      =        3.29e-08                    
+lkvth0     =        0.0                         
+wkvth0     =        2.0e-07                     
+pkvth0     =        0.0                         
+llodvth    =        0.0                         
+wlodvth    =        1.0                         
+wlod       =        0.0                         
+stk2       =        0.0                         
+lodk2      =        1.0                         
+lodeta0    =        1.0                         
+ku0        =        4.5e-08                     
+lku0       =        0.0                         
+wku0       =        2.5e-07                     
+pku0       =        0.0                         
+tku0       =        0.0                         
+llodku0    =        0.0                         
+wlodku0    =        1.0                         
+kvsat      =        0.5                         
+steta0     =        0.0                         
***WELL PROXIMITY EFFECT PARAMETERS****************************
******

.model pshort.2 pmos
*
***MODEL FLAG PARAMETERS
*
+lmin = 4.0e-06   lmax = 8.0e-06   wmin = 7.0e-06   wmax = 0.0001   
+level      =        54.0                        
+version    =        4.5                         
+binunit    =        2.0                         
+mobmod     =        0.0                         
+capmod     =        2.0                         
+igcmod     =        0.0                         
+igbmod     =        0.0                         
+geomod     =        0.0                         
+diomod     =        1.0                         
+rdsmod     =        0.0                         
+rbodymod   =        1.0                         
+rgatemod   =        0.0                         
+permod     =        1.0                         
+acnqsmod   =        0.0                         
+trnqsmod   =        0.0                         
+fnoimod    =        1.0                         
+tnoimod    =        1.0                         
+tempmod    =        0.0                         
***PROCESS PARAMETERS
+toxe       =        4.075605e-09	
+toxm       =        4.23e-09                    
+dtox       =        0.0                         
+epsrox     =        3.9                         
+xj = 1.5e-07   
+ngate = 1.0e+23   
+ndep = 1.7e+17   
+nsd = 1.0e+20   
+rsh        =        1.0                         
+rshg       =        0.1                         
***BASIC MODEL PARAMETERS
+wint       =        -1.52161e-08	   
+lint       =        -1.8665e-09	   
+vth0 = -1.049510283e+00	
+k1 = 4.342114179e-01   lk1 = 2.193919882e-09   wk1 = 2.741954960e-08   pk1 = -2.194587540e-13   
+k2 = 2.185519808e-02   lk2 = -5.670811392e-10   wk2 = -7.087364290e-09   pk2 = 5.672537145e-14   
+k3 = -15.845   
+k3b = 2.0   
+w0 = 0.0   
+dvt0 = 4.4955   
+dvt1 = 0.294   
+dvt2 = 0.015   
+dvt0w = -4.9772   
+dvt1w = 1147200.0   
+dvt2w = -0.00896   
+dsub = 0.56   
+minv = 0.0   
+voffl      =        0.0                         
+lpe0 = 0.0   
+lpeb = 0.0   
+vbm = -3.0   
+dvtp0 = 0.0   
+dvtp1 = 0.0   
+phin = 0.0   
+cdsc = 0.00013   
+cdscb = 0.00078   
+cdscd = 0.0   
+cit = 1.0e-05   
+voff = -2.826137113e-01	
+nfactor = 1.406634184e+00	
+eta0 = 0.08   
+etab = -0.07   
+u0 = 1.045813507e-02	   lu0 = -2.203833803e-10   wu0 = -2.754345351e-09   pu0 = 2.204504478e-14   
+ua = -5.895540487e-10   lua = -2.283434051e-17   wua = -2.853829520e-16   pua = 2.284128950e-21   
+ub = 9.306612061e-19   lub = -2.855300156e-27   wub = -3.568546186e-26   pub = 2.856169087e-31   
+uc = -6.604836621e-11   luc = -4.014654817e-18   wuc = -5.017504413e-17   puc = 4.015876565e-22   
+ud = 0.0   
+up = 0.0   
+lp = 1.0   
+eu = 1.67   
+vtl = 0.0   
+xn = 3.0   
+vsat = 1.522256326e+05   lvsat = 6.472512715e-02   wvsat = 8.089328370e-01   pvsat = -6.474482443e-06   
+a0 = 1.166895894e+00   la0 = 3.580154963e-08   wa0 = 4.474467705e-07   pa0 = -3.581244483e-12   
+ags = 2.878500597e-01   lags = -2.542193451e-08   wags = -3.177226298e-07   pags = 2.542967097e-12   
+a1 = 0.0   
+a2 = 9.844045143e-01   la2 = 1.208202373e-07   wa2 = 1.510007962e-06   pa2 = -1.208570056e-11   
+b0 = 0.0   
+b1 = 0.0   
+keta = 3.902123745e-03   lketa = 9.819666001e-09   wketa = 1.227259123e-07   pketa = -9.822654341e-13   
+dwg = -5.722e-09   
+dwb = -1.7864e-08   
+pclm = 3.421834162e-02   lpclm = -2.616863806e-07   wpclm = -3.270549100e-06   ppclm = 2.617660176e-11   
+pdiblc1 = 0.39   
+pdiblc2 = 2.750903300e-03   lpdiblc2 = 1.699537478e-09   wpdiblc2 = 2.124077209e-08   ppdiblc2 = -1.700054685e-13   
+pdiblcb = -0.025   
+drout = 0.56   
+pscbe1 = 800000000.0   
+pscbe2 = 9.318564943e-09   lpscbe2 = 4.604536158e-16   wpscbe2 = 5.754736471e-15   ppscbe2 = -4.605937420e-20   
+pvag = 0.0   
+delta = 0.01   
+fprout = 0.0   
+pdits = 0.0   
+pditsl     =        0.0                         
+pditsd = 0.0   
+lambda     =        0.0                         
+lc         =        5.0e-09                     
***PARAMETERS FOR ASYMMETRIC AND BIAS-DEPENDENT RDS MODEL******
+rdsw = 547.88   
+rsw = 0.0   
+rdw = 0.0   
+rdswmin    =        0.0                         
+rdwmin     =        0.0                         
+rswmin     =        0.0                         
+prwb = -0.32348   
+prwg = 0.1376   
+wr = 1.0   
***IMPACT IONIZATION CURRENT MODEL PARAMTERS******************
+alpha0 = 1.0e-10   
+alpha1 = 1.0e-10   
+beta0 = 4.751742559e+00   lbeta0 = -8.431289162e-07   wbeta0 = -1.053740172e-05   pbeta0 = 8.433854989e-11   
***GIDL INDUCED DRAIN LEAKAGE MODEL PARAMETERS*****************
+agidl = 1.011821839e-10   lagidl = -9.461883969e-18   wagidl = -1.182543624e-16   pagidl = 9.464763429e-22   
+bgidl = 1.167380142e+09   lbgidl = 1.096660161e+02   wbgidl = 1.370602816e+03   pbgidl = -1.096993899e-02   
+cgidl = 300.0   
+egidl = 0.1   
***GATE DIELECTRIC TUNNELING CURRENT MODEL PARAMETERS**********
+toxref     =        4.23e-09                    
+dlcig = 0.0   
+aigbacc = 0.43   
+bigbacc = 0.054   
+cigbacc = 0.075   
+nigbacc = 1.0   
+aigbinv = 0.35   
+bigbinv = 0.03   
+cigbinv = 0.006   
+eigbinv = 1.1   
+nigbinv = 3.0   
+aigc = 0.43   
+bigc = 0.054   
+cigc = 0.075   
+aigsd = 0.43   
+bigsd = 0.054   
+cigsd = 0.075   
+nigc = 1.0   
+poxedge = 1.0   
+pigcd = 1.0   
+ntox = 1.0   
+vfbsdoff   =        0.0                         
***CHARGE AND CAPACITANCE MODEL PARAMETERS********************
+dlc        =        9.1275e-09                  
+dwc        =        -2.252e-08                  
+xpart      =        0.0                         
+cgso       =        4.86838e-11                 
+cgdo       =        4.86838e-11                 
+cgbo       =        0.0                         
+cgdl = 8.8560258e-12   
+cgsl = 8.8560258e-12   
+clc = 1.0e-07   
+cle = 0.6   
+cf = 1.2e-11   
+ckappas = 0.6   
+vfbcv = -0.14469   
+acde = 0.8   
+moin = 18.13   
+noff = 3.9   
+voffcv = -0.10701   
***HIGH-SPEED/RF MODEL PARAMETERS******************************
+xrcrg1     =        12.0                        
+xrcrg2     =        1.0                         
+rbpb       =        50.0                        
+rbpd       =        50.0                        
+rbps       =        50.0                        
+rbdb       =        50.0                        
+rbsb       =        50.0                        
+gbmin      =        1.0e-12                     
***FLICKER AND THERMAL NOISE MODEL PARAMETERS******************
+ef         =        1.0                         
+noia       =        1.5e+42                     
+noib       =        0.0                         
+noic       =        0.0                         
+em         =        41000000.0                  
+ntnoi      =        1.0                         
+lintnoi    =        -2.0e-07                    
+af         =        1.0                         
+kf         =        0.0                         
+tnoia      =        25000000.0                  
+tnoib      =        0.0                         
+rnoia      =        0.69                        
+rnoib      =        0.34                        
***LAYOUT-DEPENDENT PARASITICS MODEL PARAMETERS****************
+xl         =        0.0                         
+xw         =        0.0                         
+dmcg       =        0.0                         
+dmdg       =        0.0                         
+dmcgt      =        0.0                         
+xgw        =        0.0                         
+xgl        =        0.0                         
+ngcon      =        1.0                         
***ASYMMETRIC SOURCE/DRAIN JUNCTION DIODE MODEL PARAMETERS*****
+jss        =        2.1483e-05                  
+jsws       =        8.04e-10                    
+ijthsfwd   =        0.1                         
+ijthsrev   =        0.1                         
+bvs        =        12.69                       
+xjbvs      =        1.0                         
+pbs        =        0.6587                      
+cjs        =        0.0006889421079             
+mjs        =        0.34629                     
+pbsws      =        0.7418                      
+cjsws      =        9.2317732e-11               
+mjsws      =        0.29781                     
+pbswgs     =        1.4338                      
+cjswgs     =        2.232631466e-10             
+mjswgs     =        0.9274                      

***TEMPERATURE DEPENDENCE PARAMETERS***************************
+tnom       =        30.0                        
+kt1 = -4.497718601e-01   lkt1 = 1.017962885e-08   wkt1 = 1.272247180e-07   pkt1 = -1.018272674e-12   
+kt2 = -8.876128052e-03   lkt2 = 1.044909795e-08   wkt2 = 1.305925353e-07   pkt2 = -1.045227784e-12   
+at = 9.112842005e+04   lat = -1.828213072e-03   wat = -2.284895607e-02   pat = 1.828769438e-07   
+ute = -3.294047289e-01   lute = -8.112000337e-08   wute = -1.013835544e-06   pute = 8.114468997e-12   
+ua1 = 1.639444191e-09   lua1 = -2.324619520e-16   wua1 = -2.905303004e-15   pua1 = 2.325326953e-20   
+ub1 = -5.805496099e-19   lub1 = 1.572702313e-25   wub1 = 1.965558972e-24   pub1 = -1.573180921e-29   
+uc1 = -1.101036316e-10   luc1 = 1.219474084e-17   wuc1 = 1.524095315e-16   puc1 = -1.219845197e-21   
+kt1l = 0.0   
+prt = 0.0   
+tvoff = 0.0   
+njs        =        1.3632                      
+tpb        =        0.0020386                   
+tcj        =        0.0012407                   
+tpbsw      =        0.001246                    
+tcjsw      =        0.00037357                  
+tpbswg     =        0.0                         
+tcjswg     =        2.0e-12                     
+xtis       =        5.2                         
+tvfbsdoff  =        0.0                         
***DW AND DL PARAMETERS****************************************
+ll         =        0.0                         
+wl         =        0.0                         
+lln        =        1.0                         
+wln        =        1.0                         
+lw         =        0.0                         
+ww         =        0.0                         
+lwn        =        1.0                         