* BSIMTran Version 0.1.24, Created on 4-26-2002
* Username: qhc
* Command Line: /net/alexis/disk1/qhc/ICM_WA/qhc_ll65p25et_dev_125/config/cydir/bin/amd64/bsimtran pmos_bsim4.rf pmos -p -npshort pshort_ttleak_raw.pm3 pshort_ttleak.pm3 
* Working Directory: /proj/gpfs/qhc/s8-models/s8x/models.3.5/spice/benny
* Time: Wed Jan 14 14:38:48 2015
* Rule File:  pmos_bsim4.rf
* Output File:  pshort_ttleak.pm3
* Input Files:
* (1) pshort_ttleak_raw.pm3
*copyright, Cypress Semiconductor, 2007
*BSIM4.V5 PMOS Model

.model pshort.0 pmos
*
***MODEL FLAG PARAMETERS
*
+lmin = 2.0e-05   lmax = 0.0001   wmin = 7.0e-06   wmax = 0.0001   
+level      =        54.0                        
+version    =        4.5                         
+binunit    =        2.0                         
+mobmod     =        0.0                         
+capmod     =        2.0                         
+igcmod     =        0.0                         
+igbmod     =        0.0                         
+geomod     =        0.0                         
+diomod     =        1.0                         
+rdsmod     =        0.0                         
+rbodymod   =        1.0                         
+rgatemod   =        0.0                         
+permod     =        1.0                         
+acnqsmod   =        0.0                         
+trnqsmod   =        0.0                         
+fnoimod    =        1.0                         
+tnoimod    =        1.0                         
+tempmod    =        0.0                         
***PROCESS PARAMETERS
+toxe       =        4.23e-09	
+toxm       =        4.23e-09                    
+dtox       =        0.0                         
+epsrox     =        3.9                         
+xj = 1.5e-07   
+ngate = 1.0e+23   
+ndep = 1.7e+17   
+nsd = 1.0e+20   
+rsh        =        1.0                         
+rshg       =        0.1                         
***BASIC MODEL PARAMETERS
+wint       =        7.3039e-09	   
+lint       =        -1.3994e-08	   
+vth0 = -1.05956087	
+k1 = 0.43448553   
+k2 = 0.019777346   
+k3 = -15.845   
+k3b = 2.0   
+w0 = 0.0   
+dvt0 = 4.4955   
+dvt1 = 0.294   
+dvt2 = 0.015   
+dvt0w = -4.9772   
+dvt1w = 1147200.0   
+dvt2w = -0.00896   
+dsub = 0.56   
+minv = 0.0   
+voffl      =        0.0                         
+lpe0 = 0.0   
+lpeb = 0.0   
+vbm = -3.0   
+dvtp0 = 0.0   
+dvtp1 = 0.0   
+phin = 0.0   
+cdsc = 0.00013   
+cdscb = 0.00078   
+cdscd = 0.0   
+cit = 1.0e-05   
+voff = -0.25706245	
+nfactor = 1.3376708	
+eta0 = 0.08   
+etab = -0.07   
+u0 = 0.0104767	   
+ua = -5.6585471e-10   
+ub = 9.3302446e-19   
+uc = -6.6549964e-11   
+ud = 0.0   
+up = 0.0   
+lp = 1.0   
+eu = 1.67   
+vtl = 0.0   
+xn = 3.0   
+vsat = 160312.5   
+a0 = 1.236661   
+ags = 0.2260578   
+a1 = 0.0   
+a2 = 0.9995   
+b0 = 0.0   
+b1 = 0.0   
+keta = 0.0051290095   
+dwg = -5.722e-09   
+dwb = -1.7864e-08   
+pclm = 0.0015228006   
+pdiblc1 = 0.39   
+pdiblc2 = 0.0029632464   
+pdiblcb = -0.025   
+drout = 0.56   
+pscbe1 = 800000000.0   
+pscbe2 = 9.3760948e-09   
+pvag = 0.0   
+delta = 0.01   
+fprout = 0.0   
+pdits = 0.0   
+pditsl     =        0.0                         
+pditsd = 0.0   
+lambda     =        0.0                         
+lc         =        5.0e-09                     
***PARAMETERS FOR ASYMMETRIC AND BIAS-DEPENDENT RDS MODEL******
+rdsw = 547.88   
+rsw = 0.0   
+rdw = 0.0   
+rdswmin    =        0.0                         
+rdwmin     =        0.0                         
+rswmin     =        0.0                         
+prwb = -0.32348   
+prwg = 0.1376   
+wr = 1.0   
***IMPACT IONIZATION CURRENT MODEL PARAMTERS******************
+alpha0 = 1.0e-10   
+alpha1 = 1.0e-10   
+beta0 = 4.6464006   
***GIDL INDUCED DRAIN LEAKAGE MODEL PARAMETERS*****************
+agidl = 3.2358e-10   
+bgidl = 1181082000.0   
+cgidl = 300.0   
+egidl = 0.1   
***GATE DIELECTRIC TUNNELING CURRENT MODEL PARAMETERS**********
+toxref     =        4.23e-09                    
+dlcig = 0.0   
+aigbacc = 0.43   
+bigbacc = 0.054   
+cigbacc = 0.075   
+nigbacc = 1.0   
+aigbinv = 0.35   
+bigbinv = 0.03   
+cigbinv = 0.006   
+eigbinv = 1.1   
+nigbinv = 3.0   
+aigc = 0.43   
+bigc = 0.054   
+cigc = 0.075   
+aigsd = 0.43   
+bigsd = 0.054   
+cigsd = 0.075   
+nigc = 1.0   
+poxedge = 1.0   
+pigcd = 1.0   
+ntox = 1.0   
+vfbsdoff   =        0.0                         
***CHARGE AND CAPACITANCE MODEL PARAMETERS********************
+dlc        =        -3.0e-09                    
+dwc        =        0.0                         
+xpart      =        0.0                         
+cgso       =        5.248925e-11                
+cgdo       =        5.248925e-11                
+cgbo       =        0.0                         
+cgdl = 9.54827175e-12   
+cgsl = 9.54827175e-12   
+clc = 1.0e-07   
+cle = 0.6   
+cf = 1.2e-11   
+ckappas = 0.6   
+vfbcv = -0.14469   
+acde = 0.8   
+moin = 18.13   
+noff = 3.9   
+voffcv = -0.10701   
***HIGH-SPEED/RF MODEL PARAMETERS******************************
+xrcrg1     =        12.0                        
+xrcrg2     =        1.0                         
+rbpb       =        50.0                        
+rbpd       =        50.0                        
+rbps       =        50.0                        
+rbdb       =        50.0                        
+rbsb       =        50.0                        
+gbmin      =        1.0e-12                     
***FLICKER AND THERMAL NOISE MODEL PARAMETERS******************
+ef         =        1.0                         
+noia       =        1.5e+42                     
+noib       =        0.0                         
+noic       =        0.0                         
+em         =        41000000.0                  
+ntnoi      =        1.0                         
+lintnoi    =        -2.0e-07                    
+af         =        1.0                         
+kf         =        0.0                         
+tnoia      =        25000000.0                  
+tnoib      =        0.0                         
+rnoia      =        0.69                        
+rnoib      =        0.34                        
***LAYOUT-DEPENDENT PARASITICS MODEL PARAMETERS****************
+xl         =        0.0                         
+xw         =        0.0                         
+dmcg       =        0.0                         
+dmdg       =        0.0                         
+dmcgt      =        0.0                         
+xgw        =        0.0                         
+xgl        =        0.0                         
+ngcon      =        1.0                         
***ASYMMETRIC SOURCE/DRAIN JUNCTION DIODE MODEL PARAMETERS*****
+jss        =        2.1483e-05                  
+jsws       =        8.04e-10                    
+ijthsfwd   =        0.1                         
+ijthsrev   =        0.1                         
+bvs        =        12.69                       
+xjbvs      =        1.0                         
+pbs        =        0.6587                      
+cjs        =        0.0007380194454             
+mjs        =        0.34629                     
+pbsws      =        0.7418                      
+cjsws      =        9.888892e-11                
+mjsws      =        0.29781                     
+pbswgs     =        1.4338                      
+cjswgs     =        2.39155046e-10              
+mjswgs     =        0.9274                      

***TEMPERATURE DEPENDENCE PARAMETERS***************************
+tnom       =        30.0                        
+kt1 = -0.4485   
+kt2 = -0.0075706   
+at = 90900.0   
+ute = -0.33954   
+ua1 = 1.6104e-09   
+ub1 = -5.609e-19   
+uc1 = -1.0858e-10   
+kt1l = 0.0   
+prt = 0.0   
+tvoff = 0.0   
+njs        =        1.3632                      
+tpb        =        0.0020386                   
+tcj        =        0.0012407                   
+tpbsw      =        0.001246                    
+tcjsw      =        0.00037357                  
+tpbswg     =        0.0                         
+tcjswg     =        2.0e-12                     
+xtis       =        5.2                         
+tvfbsdoff  =        0.0                         
***DW AND DL PARAMETERS****************************************
+ll         =        0.0                         
+wl         =        0.0                         
+lln        =        1.0                         
+wln        =        1.0                         
+lw         =        0.0                         
+ww         =        0.0                         
+lwn        =        1.0                         
+wwn        =        1.0                         
+lwl        =        0.0                         
+wwl        =        0.0                         
+llc        =        0.0                         
+wlc        =        0.0                         
+lwc        =        0.0                         
+wwc        =        0.0                         
+lwlc       =        0.0                         
+wwlc       =        0.0                         
***STRESS PARAMETERS*******************************************
+saref      =        3.0e-06                     
+sbref      =        3.0e-06                     
+kvth0      =        3.29e-08                    
+lkvth0     =        0.0                         
+wkvth0     =        2.0e-07                     
+pkvth0     =        0.0                         
+llodvth    =        0.0                         
+wlodvth    =        1.0                         
+wlod       =        0.0                         
+stk2       =        0.0                         
+lodk2      =        1.0                         
+lodeta0    =        1.0                         
+ku0        =        4.5e-08                     
+lku0       =        0.0                         
+wku0       =        2.5e-07                     
+pku0       =        0.0                         
+tku0       =        0.0                         
+llodku0    =        0.0                         
+wlodku0    =        1.0                         
+kvsat      =        0.5                         
+steta0     =        0.0                         
***WELL PROXIMITY EFFECT PARAMETERS****************************
******

.model pshort.1 pmos
*
***MODEL FLAG PARAMETERS
*
+lmin = 8.0e-06   lmax = 2.0e-05   wmin = 7.0e-06   wmax = 0.0001   
+level      =        54.0                        
+version    =        4.5                         
+binunit    =        2.0                         
+mobmod     =        0.0                         
+capmod     =        2.0                         
+igcmod     =        0.0                         
+igbmod     =        0.0                         
+geomod     =        0.0                         
+diomod     =        1.0                         
+rdsmod     =        0.0                         
+rbodymod   =        1.0                         
+rgatemod   =        0.0                         
+permod     =        1.0                         
+acnqsmod   =        0.0                         
+trnqsmod   =        0.0                         
+fnoimod    =        1.0                         
+tnoimod    =        1.0                         
+tempmod    =        0.0                         
***PROCESS PARAMETERS
+toxe       =        4.23e-09	
+toxm       =        4.23e-09                    
+dtox       =        0.0                         
+epsrox     =        3.9                         
+xj = 1.5e-07   
+ngate = 1.0e+23   
+ndep = 1.7e+17   
+nsd = 1.0e+20   
+rsh        =        1.0                         
+rshg       =        0.1                         
***BASIC MODEL PARAMETERS
+wint       =        7.3039e-09	   
+lint       =        -1.3994e-08	   
+vth0 = -1.05956087	
+k1 = 0.43448553   
+k2 = 0.019777346   
+k3 = -15.845   
+k3b = 2.0   
+w0 = 0.0   
+dvt0 = 4.4955   
+dvt1 = 0.294   
+dvt2 = 0.015   
+dvt0w = -4.9772   
+dvt1w = 1147200.0   
+dvt2w = -0.00896   
+dsub = 0.56   
+minv = 0.0   
+voffl      =        0.0                         
+lpe0 = 0.0   
+lpeb = 0.0   
+vbm = -3.0   
+dvtp0 = 0.0   
+dvtp1 = 0.0   
+phin = 0.0   
+cdsc = 0.00013   
+cdscb = 0.00078   
+cdscd = 0.0   
+cit = 1.0e-05   
+voff = -0.25706245	
+nfactor = 1.3376708	
+eta0 = 0.08   
+etab = -0.07   
+u0 = 0.0104767	   
+ua = -5.6585471e-10   
+ub = 9.3302446e-19   
+uc = -6.6549964e-11   
+ud = 0.0   
+up = 0.0   
+lp = 1.0   
+eu = 1.67   
+vtl = 0.0   
+xn = 3.0   
+vsat = 160312.5   
+a0 = 1.236661   
+ags = 0.2260578   
+a1 = 0.0   
+a2 = 0.9995   
+b0 = 0.0   
+b1 = 0.0   
+keta = 0.0051290095   
+dwg = -5.722e-09   
+dwb = -1.7864e-08   
+pclm = 0.0015228006   
+pdiblc1 = 0.39   
+pdiblc2 = 0.0029632464   
+pdiblcb = -0.025   
+drout = 0.56   
+pscbe1 = 800000000.0   
+pscbe2 = 9.3760948e-09   
+pvag = 0.0   
+delta = 0.01   
+fprout = 0.0   
+pdits = 0.0   
+pditsl     =        0.0                         
+pditsd = 0.0   
+lambda     =        0.0                         
+lc         =        5.0e-09                     
***PARAMETERS FOR ASYMMETRIC AND BIAS-DEPENDENT RDS MODEL******
+rdsw = 547.88   
+rsw = 0.0   
+rdw = 0.0   
+rdswmin    =        0.0                         
+rdwmin     =        0.0                         
+rswmin     =        0.0                         
+prwb = -0.32348   
+prwg = 0.1376   
+wr = 1.0   
***IMPACT IONIZATION CURRENT MODEL PARAMTERS******************
+alpha0 = 1.0e-10   
+alpha1 = 1.0e-10   
+beta0 = 4.6464006   
***GIDL INDUCED DRAIN LEAKAGE MODEL PARAMETERS*****************
+agidl = 3.2358e-10   
+bgidl = 1181082000.0   
+cgidl = 300.0   
+egidl = 0.1   
***GATE DIELECTRIC TUNNELING CURRENT MODEL PARAMETERS**********
+toxref     =        4.23e-09                    
+dlcig = 0.0   
+aigbacc = 0.43   
+bigbacc = 0.054   
+cigbacc = 0.075   
+nigbacc = 1.0   
+aigbinv = 0.35   
+bigbinv = 0.03   
+cigbinv = 0.006   
+eigbinv = 1.1   
+nigbinv = 3.0   
+aigc = 0.43   
+bigc = 0.054   
+cigc = 0.075   
+aigsd = 0.43   
+bigsd = 0.054   
+cigsd = 0.075   
+nigc = 1.0   
+poxedge = 1.0   
+pigcd = 1.0   
+ntox = 1.0   
+vfbsdoff   =        0.0                         
***CHARGE AND CAPACITANCE MODEL PARAMETERS********************
+dlc        =        -3.0e-09                    
+dwc        =        0.0                         
+xpart      =        0.0                         
+cgso       =        5.248925e-11                
+cgdo       =        5.248925e-11                
+cgbo       =        0.0                         
+cgdl = 9.54827175e-12   
+cgsl = 9.54827175e-12   
+clc = 1.0e-07   
+cle = 0.6   
+cf = 1.2e-11   
+ckappas = 0.6   
+vfbcv = -0.14469   
+acde = 0.8   
+moin = 18.13   
+noff = 3.9   
+voffcv = -0.10701   
***HIGH-SPEED/RF MODEL PARAMETERS******************************
+xrcrg1     =        12.0                        
+xrcrg2     =        1.0                         
+rbpb       =        50.0                        
+rbpd       =        50.0                        
+rbps       =        50.0                        
+rbdb       =        50.0                        
+rbsb       =        50.0                        
+gbmin      =        1.0e-12                     
***FLICKER AND THERMAL NOISE MODEL PARAMETERS******************
+ef         =        1.0                         
+noia       =        1.5e+42                     
+noib       =        0.0                         
+noic       =        0.0                         
+em         =        41000000.0                  
+ntnoi      =        1.0                         
+lintnoi    =        -2.0e-07                    
+af         =        1.0                         
+kf         =        0.0                         
+tnoia      =        25000000.0                  
+tnoib      =        0.0                         
+rnoia      =        0.69                        
+rnoib      =        0.34                        
***LAYOUT-DEPENDENT PARASITICS MODEL PARAMETERS****************
+xl         =        0.0                         
+xw         =        0.0                         
+dmcg       =        0.0                         
+dmdg       =        0.0                         
+dmcgt      =        0.0                         
+xgw        =        0.0                         
+xgl        =        0.0                         
+ngcon      =        1.0                         
***ASYMMETRIC SOURCE/DRAIN JUNCTION DIODE MODEL PARAMETERS*****
+jss        =        2.1483e-05                  
+jsws       =        8.04e-10                    
+ijthsfwd   =        0.1                         
+ijthsrev   =        0.1                         
+bvs        =        12.69                       
+xjbvs      =        1.0                         
+pbs        =        0.6587                      
+cjs        =        0.0007380194454             
+mjs        =        0.34629                     
+pbsws      =        0.7418                      
+cjsws      =        9.888892e-11                
+mjsws      =        0.29781                     
+pbswgs     =        1.4338                      
+cjswgs     =        2.39155046e-10              
+mjswgs     =        0.9274                      

***TEMPERATURE DEPENDENCE PARAMETERS***************************
+tnom       =        30.0                        
+kt1 = -0.4485   
+kt2 = -0.0075706   
+at = 90900.0   
+ute = -0.33954   
+ua1 = 1.6104e-09   
+ub1 = -5.609e-19   
+uc1 = -1.0858e-10   
+kt1l = 0.0   
+prt = 0.0   
+tvoff = 0.0   
+njs        =        1.3632                      
+tpb        =        0.0020386                   
+tcj        =        0.0012407                   
+tpbsw      =        0.001246                    
+tcjsw      =        0.00037357                  
+tpbswg     =        0.0                         
+tcjswg     =        2.0e-12                     
+xtis       =        5.2                         
+tvfbsdoff  =        0.0                         
***DW AND DL PARAMETERS****************************************
+ll         =        0.0                         
+wl         =        0.0                         
+lln        =        1.0                         
+wln        =        1.0                         
+lw         =        0.0                         
+ww         =        0.0                         
+lwn        =        1.0                         
+wwn        =        1.0                         
+lwl        =        0.0                         
+wwl        =        0.0                         
+llc        =        0.0                         
+wlc        =        0.0                         
+lwc        =        0.0                         
+wwc        =        0.0                         
+lwlc       =        0.0                         
+wwlc       =        0.0                         
***STRESS PARAMETERS*******************************************
+saref      =        3.0e-06                     
+sbref      =        3.0e-06                     
+kvth0      =        3.29e-08                    
+lkvth0     =        0.0                         
+wkvth0     =        2.0e-07                     
+pkvth0     =        0.0                         
+llodvth    =        0.0                         
+wlodvth    =        1.0                         
+wlod       =        0.0                         
+stk2       =        0.0                         
+lodk2      =        1.0                         
+lodeta0    =        1.0                         
+ku0        =        4.5e-08                     
+lku0       =        0.0                         
+wku0       =        2.5e-07                     
+pku0       =        0.0                         
+tku0       =        0.0                         
+llodku0    =        0.0                         
+wlodku0    =        1.0                         
+kvsat      =        0.5                         
+steta0     =        0.0                         
***WELL PROXIMITY EFFECT PARAMETERS****************************
******

.model pshort.2 pmos
*
***MODEL FLAG PARAMETERS
*
+lmin = 4.0e-06   lmax = 8.0e-06   wmin = 7.0e-06   wmax = 0.0001   
+level      =        54.0                        
+version    =        4.5                         
+binunit    =        2.0                         
+mobmod     =        0.0                         
+capmod     =        2.0                         
+igcmod     =        0.0                         
+igbmod     =        0.0                         
+geomod     =        0.0                         
+diomod     =        1.0                         
+rdsmod     =        0.0                         
+rbodymod   =        1.0                         
+rgatemod   =        0.0                         
+permod     =        1.0                         
+acnqsmod   =        0.0                         
+trnqsmod   =        0.0                         
+fnoimod    =        1.0                         
+tnoimod    =        1.0                         
+tempmod    =        0.0                         
***PROCESS PARAMETERS
+toxe       =        4.23e-09	
+toxm       =        4.23e-09                    
+dtox       =        0.0                         
+epsrox     =        3.9                         
+xj = 1.5e-07   
+ngate = 1.0e+23   
+ndep = 1.7e+17   
+nsd = 1.0e+20   
+rsh        =        1.0                         
+rshg       =        0.1                         
***BASIC MODEL PARAMETERS
+wint       =        7.3039e-09	   
+lint       =        -1.3994e-08	   
+vth0 = -1.059291089e+00	
+k1 = 4.342115240e-01   lk1 = 2.199716523e-09   wk1 = 2.739659293e-08   pk1 = -2.199395193e-13   
+k2 = 1.987290405e-02   lk2 = -7.671388642e-10   wk2 = -9.554408926e-09   pk2 = 7.670268020e-14   
+k3 = -15.845   
+k3b = 2.0   
+w0 = 0.0   
+dvt0 = 4.4955   
+dvt1 = 0.294   
+dvt2 = 0.015   
+dvt0w = -4.9772   
+dvt1w = 1147200.0   
+dvt2w = -0.00896   
+dsub = 0.56   
+minv = 0.0   
+voffl      =        0.0                         
+lpe0 = 0.0   
+lpeb = 0.0   
+vbm = -3.0   
+dvtp0 = 0.0   
+dvtp1 = 0.0   
+phin = 0.0   
+cdsc = 0.00013   
+cdscb = 0.00078   
+cdscd = 0.0   
+cit = 1.0e-05   
+voff = -2.563156292e-01	
+nfactor = 1.349265265e+00	
+eta0 = 0.08   
+etab = -0.07   
+u0 = 1.049091981e-02	   lu0 = -1.141564848e-10   wu0 = -1.421773538e-09   pu0 = 1.141398090e-14   
+ua = -5.649911990e-10   lua = -6.932255764e-18   wua = -8.633848373e-17   pua = 6.931243113e-22   
+ub = 9.334007336e-19   lub = -3.020720246e-27   wub = -3.762186722e-26   pub = 3.020278985e-31   
+uc = -6.604856040e-11   luc = -4.025262094e-18   wuc = -5.013303572e-17   puc = 4.024674091e-22   
+ud = 0.0   
+up = 0.0   
+lp = 1.0   
+eu = 1.67   
+vtl = 0.0   
+xn = 3.0   
+vsat = 1.522287635e+05   lvsat = 6.489613994e-02   wvsat = 8.082555684e-01   pvsat = -6.488666004e-06   
+a0 = 1.229773014e+00   la0 = 5.529667256e-08   wa0 = 6.886980266e-07   pa0 = -5.528859493e-12   
+ags = 2.315090589e-01   lags = -4.376264138e-08   wags = -5.450462634e-07   pags = 4.375624862e-12   
+a1 = 0.0   
+a2 = 9.844103585e-01   la2 = 1.211394612e-07   wa2 = 1.508743728e-06   pa2 = -1.211217654e-11   
+b0 = 0.0   
+b1 = 0.0   
+keta = 3.902598732e-03   lketa = 9.845610925e-09   wketa = 1.226231616e-07   pketa = -9.844172698e-13   
+dwg = -5.722e-09   
+dwb = -1.7864e-08   
+pclm = 3.420568359e-02   lpclm = -2.623777925e-07   wpclm = -3.267810874e-06   ppclm = 2.623394649e-11   
+pdiblc1 = 0.39   
+pdiblc2 = 2.750985508e-03   lpdiblc2 = 1.704027893e-09   wpdiblc2 = 2.122298852e-08   ppdiblc2 = -1.703778972e-13   
+pdiblcb = -0.025   
+drout = 0.56   
+pscbe1 = 800000000.0   
+pscbe2 = 9.318587215e-09   lpscbe2 = 4.616701983e-16   wpscbe2 = 5.749918392e-15   ppscbe2 = -4.616027585e-20   
+pvag = 0.0   
+delta = 0.01   
+fprout = 0.0   
+pdits = 0.0   
+pditsl     =        0.0                         
+pditsd = 0.0   
+lambda     =        0.0                         
+lc         =        5.0e-09                     
***PARAMETERS FOR ASYMMETRIC AND BIAS-DEPENDENT RDS MODEL******
+rdsw = 547.88   
+rsw = 0.0   
+rdw = 0.0   
+rdswmin    =        0.0                         
+rdwmin     =        0.0                         
+rswmin     =        0.0                         
+prwb = -0.32348   
+prwg = 0.1376   
+wr = 1.0   
***IMPACT IONIZATION CURRENT MODEL PARAMTERS******************
+alpha0 = 1.0e-10   
+alpha1 = 1.0e-10   
+beta0 = 4.751701776e+00   lbeta0 = -8.453565801e-07   wbeta0 = -1.052857942e-05   pbeta0 = 8.452330921e-11   
***GIDL INDUCED DRAIN LEAKAGE MODEL PARAMETERS*****************
+agidl = 3.004343498e-10   lagidl = 1.858130021e-16   wagidl = 2.314226913e-15   pagidl = -1.857858589e-20   
+bgidl = 1.167385446e+09   lbgidl = 1.099557690e+02   wbgidl = 1.369455297e+03   pbgidl = -1.099397069e-02   
+cgidl = 300.0   
+egidl = 0.1   
***GATE DIELECTRIC TUNNELING CURRENT MODEL PARAMETERS**********
+toxref     =        4.23e-09                    
+dlcig = 0.0   
+aigbacc = 0.43   
+bigbacc = 0.054   
+cigbacc = 0.075   
+nigbacc = 1.0   
+aigbinv = 0.35   
+bigbinv = 0.03   
+cigbinv = 0.006   
+eigbinv = 1.1   
+nigbinv = 3.0   
+aigc = 0.43   
+bigc = 0.054   
+cigc = 0.075   
+aigsd = 0.43   
+bigsd = 0.054   
+cigsd = 0.075   
+nigc = 1.0   
+poxedge = 1.0   
+pigcd = 1.0   
+ntox = 1.0   
+vfbsdoff   =        0.0                         
***CHARGE AND CAPACITANCE MODEL PARAMETERS********************
+dlc        =        -3.0e-09                    
+dwc        =        0.0                         
+xpart      =        0.0                         
+cgso       =        5.248925e-11                
+cgdo       =        5.248925e-11                
+cgbo       =        0.0                         
+cgdl = 9.54827175e-12   
+cgsl = 9.54827175e-12   
+clc = 1.0e-07   
+cle = 0.6   
+cf = 1.2e-11   
+ckappas = 0.6   
+vfbcv = -0.14469   
+acde = 0.8   
+moin = 18.13   
+noff = 3.9   
+voffcv = -0.10701   
***HIGH-SPEED/RF MODEL PARAMETERS******************************
+xrcrg1     =        12.0                        
+xrcrg2     =        1.0                         
+rbpb       =        50.0                        
+rbpd       =        50.0                        
+rbps       =        50.0                        
+rbdb       =        50.0                        
+rbsb       =        50.0                        
+gbmin      =        1.0e-12                     
***FLICKER AND THERMAL NOISE MODEL PARAMETERS******************
+ef         =        1.0                         
+noia       =        1.5e+42                     
+noib       =        0.0                         
+noic       =        0.0                         
+em         =        41000000.0                  
+ntnoi      =        1.0                         
+lintnoi    =        -2.0e-07                    
+af         =        1.0                         
+kf         =        0.0                         
+tnoia      =        25000000.0                  
+tnoib      =        0.0                         
+rnoia      =        0.69                        
+rnoib      =        0.34                        
***LAYOUT-DEPENDENT PARASITICS MODEL PARAMETERS****************
+xl         =        0.0                         
+xw         =        0.0                         
+dmcg       =        0.0                         
+dmdg       =        0.0                         
+dmcgt      =        0.0                         
+xgw        =        0.0                         
+xgl        =        0.0                         
+ngcon      =        1.0                         
***ASYMMETRIC SOURCE/DRAIN JUNCTION DIODE MODEL PARAMETERS*****
+jss        =        2.1483e-05                  
+jsws       =        8.04e-10                    
+ijthsfwd   =        0.1                         
+ijthsrev   =        0.1                         
+bvs        =        12.69                       
+xjbvs      =        1.0                         
+pbs        =        0.6587                      
+cjs        =        0.0007380194454             
+mjs        =        0.34629                     
+pbsws      =        0.7418                      
+cjsws      =        9.888892e-11                
+mjsws      =        0.29781                     
+pbswgs     =        1.4338                      
+cjswgs     =        2.39155046e-10              
+mjswgs     =        0.9274                      

***TEMPERATURE DEPENDENCE PARAMETERS***************************
+tnom       =        30.0                        
+kt1 = -4.497713677e-01   lkt1 = 1.020652485e-08   wkt1 = 1.271182007e-07   pkt1 = -1.020503390e-12   
+kt2 = -8.875622619e-03   lkt2 = 1.047670592e-08   wkt2 = 1.304831984e-07   pkt2 = -1.047517551e-12   
+at = 9.112833162e+04   lat = -1.833043465e-03   wat = -2.282982608e-02   pat = 1.832775698e-07   
+ute = -3.294086528e-01   lute = -8.133433370e-08   wute = -1.012986723e-06   pute = 8.132245255e-12   
+ua1 = 1.639432947e-09   lua1 = -2.330761488e-16   wua1 = -2.902870577e-15   pua1 = 2.330421015e-20   
+ub1 = -5.805420026e-19   lub1 = 1.576857611e-25   wub1 = 1.963913333e-24   pub1 = -1.576627267e-29   
+uc1 = -1.101030418e-10   luc1 = 1.222696104e-17   wuc1 = 1.522819286e-16   puc1 = -1.222517495e-21   
+kt1l = 0.0   
+prt = 0.0   
+tvoff = 0.0   
+njs        =        1.3632                      
+tpb        =        0.0020386                   
+tcj        =        0.0012407                   
+tpbsw      =        0.001246                    
+tcjsw      =        0.00037357                  
+tpbswg     =        0.0                         
+tcjswg     =        2.0e-12                     
+xtis       =        5.2                         
+tvfbsdoff  =        0.0                         
***DW AND DL PARAMETERS****************************************
+ll         =        0.0                         
+wl         =        0.0                         
+lln        =        1.0                         
+wln        =        1.0                         
+lw         =        0.0                         
+ww         =        0.0                         
+lwn        =        1.0                         