* BSIMTran Version 0.1.24, Created on 4-26-2002
* Username: ovr
* Command Line: /proj/tlib/s8dia/config/cydir/bin/lnx86/bsimtran pmos_bsim4_RF_m2.rf pmos -p -npshort_rf_base pshort_rf_base_m2_b.pm pshort_rf_base_m2_b_bsimtranout.pm 
* Working Directory: /home/ovr/work/s8_work/models.3.2/rev_model/pshort/combined
* Time: Mon May 12 16:28:26 2008
* Rule File:  pmos_bsim4_RF_m2.rf
* Output File:  pshort_rf_base_m2_b_bsimtranout.pm
* Input Files:
* (1) pshort_rf_base_m2_b.pm
*copyright, Cypress Semiconductor, 2002
*BSIM3.V3 PMOS Model

.model pshort_rf_base_m2_b.0 pmos
*
*DC IV MOS PARAMETERS
*
+lmin = 1.45e-07   lmax = 1.55e-07   wmin = 1.645e-06   wmax = 1.655e-06   
+level      =        54                          
+tnom       =        30                          
+version    =        4.5                         
+toxm       =        4.23e-09                    
+xj = 1.5e-07   
+lln        =        1                           
+lwn        =        1                           
+wln        =        1                           
+wwn        =        1                           
+lint       =        '-1.399e-08+pshort_rf_base_b_lint_diff'   
+ll         =        0                           
+lw         =        0                           
+lwl        =        0                           
+wint       =        '7.304e-09+pshort_rf_base_b_wint_diff'   
+wl         =        0                           
+ww         =        0                           
+wwl        =        0                           
+xl         =        0                           
+xw         =        0                           
+mobmod     =        0                           
+binunit    =        2                           
+dwg = -5.722e-09   
+dwb = -1.786e-08   
*NEW BSIM4 Parameters(Model Selectors)
+igcmod     =        0                           
+igbmod     =        0                           
+rgatemod   =        3                           
+rbodymod   =        1                           
+trnqsmod   =        0                           
+acnqsmod   =        0                           
+fnoimod    =        1                           
+tnoimod    =        1                           
+permod     =        1                           
+geomod     =        0                           
+rdsmod     =        1                           
+tempmod    =        0                           
*******
*NEW BSIM4 Parameters(4.4 Version)
+lintnoi    =        -2.0e-07                           
+vfbsdoff   =        0                           
+lambda     =        0                           
+vtl        =        0                           
+lc         =        5e-09                       
+xn         =        3                           
+rnoia      =        0.69                        
+rnoib      =        0.34                        
+tnoia      =        2.5e+07                     
+tnoib      =        0                           
*NEW BSIM4 Parameters(Process Parameters)
+epsrox     =        3.9                         
+toxe       =        '4.23e-09*pshort_rf_base_b_toxe_mult'	
+dtox       =        0                           
+ndep = 1.62e+17   
+nsd = 1e+20   
+rshg       =        '49.2+pshort_rf_base_b_rshg_diff'   
****
+rsh        =        1                           
*
* THRESHOLD VOLTAGE PARAMETERS
*
+vth0 = '-1.022+pshort_rf_base_m2_b_vth0_diff_0'	
+k1 = 1.038   
+k2 = '-0.1734+pshort_rf_base_m2_b_k2_diff_0'   
+k3 = -15.85   
+dvt0 = 4.585   
+dvt1 = 0.294   
+dvt2 = 0.015   
+dvt0w = -4.977   
+dvt1w = 1.147e+06   
+dvt2w = -0.00896   
+w0 = 0   
+k3b = 2   
*NEW BSIM4 Parameters for Level 54
+phin = 0   
+lpe0 = 0   
+lpeb = 0   
+vbm = -3   
+dvtp0 = 0   
+dvtp1 = 0   
*
* MOBILITY PARAMETERS
*
+vsat = '6.784e+04+pshort_rf_base_m2_b_vsat_diff_0'   
+ua = '-2.45e-09+pshort_rf_base_m2_b_ua_diff_0'   
+ub = '2.075e-18+pshort_rf_base_m2_b_ub_diff_0'   
+uc = 2.523e-13   
+rdsw = '547.9+pshort_rf_base_m2_b_rdsw_diff_0'   
+prwb = -0.3235   
+prwg = 0.1376   
+wr = 1   
+u0 = '0.00307+pshort_rf_base_m2_b_u0_diff_0'   
+a0 = '0.8909+pshort_rf_base_m2_b_a0_diff_0'   
+keta = 0.0239   
+a1 = 0   
+a2 = 0.6419   
+ags = '1.25+pshort_rf_base_m2_b_ags_diff_0'   
+b0 = '0+pshort_rf_base_m2_b_b0_diff_0'   
+b1 = '0+pshort_rf_base_m2_b_b1_diff_0'   
*NEW BSIM4 Parameters(Mobility Parameters)
+eu         =        1.67                        
+rdswmin    =        0                           
+rdw = 547.9   
+rdwmin     =        0                           
+rsw = 547.9   
+rswmin     =        0                           
*****
*
* SUBTHRESHOLD CURRENT PARAMETERS
*
+voff = '-0.2969+pshort_rf_base_m2_b_voff_diff_0'	
+nfactor = '6.23+pshort_rf_base_m2_b_nfactor_diff_0'	
+cit = 0   
+cdsc = 0   
+cdscb = 0   
+cdscd = 0   
+eta0 = 0.1799   
+etab = -0.07835   
+dsub = 0.2663   
*NEW BSIM4 Parameters(Sub-threshold parameters)
+voffl = 0   
+minv = 0   
*****
*
* ROUT PARAMETERS
*
+pclm = 0.4678   
+pdiblc1 = 0.235   
+pdiblc2 = 0   
+pdiblcb = -0.0001934   
+drout = 0.4527   
+pscbe1 = 5.12e+08   
+pscbe2 = 9.477e-08   
+pvag = 0   
+delta = 0.05627   
+alpha0 = 1e-10   
+alpha1 = 1e-10   
+beta0 = 8.581   
*NEW BSIM4 Parameters(ROUT Parameters)
+fprout = 0   
+pdits = 0   
+pditsl     =        0                           
+pditsd = 0   
****
*NEW BSIM4 Parameters(GATE INDUCED DRAIN LEAKAGE MODEL PARAMTERS)
+agidl = 3.016e-10   
+bgidl = 1e+09   
+cgidl = 300   
+egidl = 0.1   
****
*NEW BSIM4 Parameters(Gate Leakage Current Parameters)
+aigbacc = 0.43   
+bigbacc = 0.054   
+cigbacc = 0.075   
+nigbacc = 1   
+aigbinv = 0.35   
+bigbinv = 0.03   
+cigbinv = 0.006   
+eigbinv = 1.1   
+nigbinv = 3   
+aigc = 0.43   
+bigc = 0.054   
+cigc = 0.075   
+nigc = 1   
+aigsd = 0.43   
+bigsd = 0.054   
+cigsd = 0.075   
+dlcig = 0   
+poxedge = 1   
+pigcd = 1   
+ntox = 1   
+toxref     =        4.23e-09                    
*****
*
* TEMPERATURE EFFECTS PARAMETERS
*
+kt1 = '-0.556+pshort_rf_base_m2_b_kt1_diff_0'   
+kt2 = -0.122   
+at = 4.554e+04   
+ute = -0.39   
+ua1 = 1.346e-10   
+ub1 = 4.516e-19   
+uc1 = 6.005e-13   
+kt1l = 0   
+prt = 0   
*NEW BSIM4 Parameters(HIGH SPEED RF MODEL PARAMETERS)
+xrcrg1 = 10   
+xrcrg2 = 2   
+rbpb       =        '800*pshort_rf_base_b_rbpb_mult'   
+rbpd       =        0.001                       
+rbps       =        0.001                       
+rbdb       =        1e+05                       
+rbsb       =        1e+05                       
+gbmin      =        1e-12                       
****
*NEW BSIM4 Parameters(FLICKER and THERMAL NOISE PARAMETERS)
+noia       =        1.5e+42                     
+noib       =        0.0                    
+noic       =        0.0                    
+em         =        4.1e+07                     
+af         =        1                           
+ef         =        1.0                        
+kf         =        0                           
+ntnoi      =        1                           
*****
*NEW BSIM4 Parameters(LAYOUT DEPENDENT PARASITIC MODEL PARAMETERS)
+dmcg       =        0                           
+dmcgt      =        0                           
+dmdg       =        0                           
+xgw        =        '6e-07+pshort_rf_base_b_xgw_diff'   
+xgl        =        0                           
+ngcon      =        2                           
****
*
*DIODE DC IV PARAMTERS
*
*NEW BSIM4 Parameters(DIODE DC IV parameters)
+diomod     =        1                           
+njs        =        1.363                       
+jss        =        2.148e-05                   
+jsws       =        8.04e-10                    
+xtis       =        5.2                         
+bvs        =        12.69                       
+xjbvs      =        1                           
+ijthsrev   =        0.1                         
+ijthsfwd   =        0.1                         
*
* DIODE and FET CAPACITANCE PARAMETERS
*
+tpb        =        0.002039                    
+tpbsw      =        0.001246                    
+tpbswg     =        0                           
+tcj        =        0.001241                    
+tcjsw      =        0.0003736                   
+tcjswg     =        2e-12                       
+cgdo       =        '1.6e-10*pshort_rf_base_b_overlap_mult'   
+cgso       =        '1.505e-10*pshort_rf_base_b_overlap_mult'   
+cgbo       =        0                           
+capmod     =        2                           
+xpart      =        0                           
+cgsl       =        '1.001e-11*pshort_rf_base_b_overlap_mult'   
+cgdl       =        '2.12e-10*pshort_rf_base_b_overlap_mult'   
+cf         =        1.2e-11                     
+clc        =        0                           
+cle        =        0.6                         
+dlc        =        '-7e-09+pshort_rf_base_b_dlc_diff+pshort_rf_base_dlc_rotweak'   
+dwc        =        '0+pshort_rf_base_b_dwc_diff'   
+vfbcv      =        -0.1447                     
+acde       =        0.401                       
+moin       =        15                          
+noff       =        2.5                         
+voffcv     =        0.05                        
+ngate      =        1e+23                       
*NEW BSIM4 Parameters(FET and DIODE capacitance parameters)
+ckappas    =        0.6                         
+cjs        =        '0.0024*pshort_rf_base_b_ajunction_mult'   
+mjs        =        0.0862                      
+pbs        =        0.9587                      
+cjsws      =        '9.88e-11*pshort_rf_base_b_pjunction_mult'   
+mjsws      =        0.92                        
+pbsws      =        0.94                        
+cjswgs     =        '3.2e-10*pshort_rf_base_b_pjunction_mult'   
+mjswgs     =        0.12                        
+pbswgs     =        1                           
******

* BSIMTran Version 0.1.24, Created on 4-26-2002
* Username: hai
* Command Line: /proj/tlib/s8dia/config/cydir/bin/lnx86/bsimtran pmos_bsim4_RF.rf pmos -p -npshort_rf_base ps1p65p18m2x4_sim.pm ps1p65xp18m2x4_bsimtranoutput.pm 
* Working Directory: /home/hai/models/s8/s8dia/models.3.2/pshort/combined/beta1
* Time: Wed Dec 12 17:09:12 2007
* Rule File:  pmos_bsim4_RF.rf
* Output File:  ps1p65xp18m2x4_bsimtranoutput.pm
* Input Files:
* (1) ps1p65p18m2x4_sim.pm
*copyright, Cypress Semiconductor, 2002
*BSIM3.V3 PMOS Model

.model pshort_rf_base_m2_b.1 pmos
*
*DC IV MOS PARAMETERS
*
+lmin = 1.75e-07  lmax = 1.85e-07  wmin = 1.645e-06  wmax = 1.655e-06
+level      =        54                          
+tnom       =        30                          
+version    =        4.5                         
+toxm       =        4.23e-09                    
+xj = 1.5e-07   
+lln        =        1                           
+lwn        =        1                           
+wln        =        1                           
+wwn        =        1                           
+lint       =        '-1.399e-08+pshort_rf_base_b_lint_diff'   
+ll         =        0                           
+lw         =        0                           
+lwl        =        0                           
+wint       =        '7.304e-09+pshort_rf_base_b_wint_diff'   
+wl         =        0                           
+ww         =        0                           
+wwl        =        0                           
+xl         =        0                           
+xw         =        0                           
+mobmod     =        0                           
+binunit    =        2                           
+dwg = -5.722e-09   
+dwb = -1.786e-08   
*NEW BSIM4 Parameters(Model Selectors)
+igcmod     =        0                           
+igbmod     =        0                           
+rgatemod   =        3                           
+rbodymod   =        1                           
+trnqsmod   =        0                           
+acnqsmod   =        0                           
+fnoimod    =        1                           
+tnoimod    =        1                           
+permod     =        1                           
+geomod     =        0                           
+rdsmod     =        1                           
+tempmod    =        0                           
*******
*NEW BSIM4 Parameters(4.4 Version)
+lintnoi    =        -2.0e-07                           
+vfbsdoff   =        0                           
+lambda     =        0                           
+vtl        =        0                           
+lc         =        5e-09                       
+xn         =        3                           
+rnoia      =        0.69                        
+rnoib      =        0.34                        
+tnoia      =        25e6                        
+tnoib      =        0.0e-6                      
*NEW BSIM4 Parameters(Process Parameters)
+epsrox     =        3.9                         
+toxe       =        '4.23e-09*pshort_rf_base_b_toxe_mult'   
+dtox       =        0                           
+ndep = 1.62e+17   
+nsd = 1e+20   
+rshg       =        '49.2+pshort_rf_base_b_rshg_diff'   
****
+rsh        =        1                           
*
* THRESHOLD VOLTAGE PARAMETERS
*
+vth0 = '-0.984+pshort_rf_base_m2_b_vth0_diff_1'  
+k1 = 1.038   
+k2 = '-0.1734+pshort_rf_base_m2_b_k2_diff_1'   
+k3 = -15.85   
+dvt0 = 4.585   
+dvt1 = 0.294   
+dvt2 = 0.015   
+dvt0w = -4.977   
+dvt1w = 1.147e+06   
+dvt2w = -0.00896   
+w0 = 0   
+k3b = 2   
*NEW BSIM4 Parameters for Level 54
+phin = 0   
+lpe0 = 0   
+lpeb = 0   
+vbm = -3   
+dvtp0 = 0   
+dvtp1 = 0   
*
* MOBILITY PARAMETERS
*
+vsat = '7.217e+04+pshort_rf_base_m2_b_vsat_diff_1'   
+ua = '-2.37e-09+pshort_rf_base_m2_b_ua_diff_1'   
+ub = '1.99e-18+pshort_rf_base_m2_b_ub_diff_1'   
+uc = 2.523e-13   
+rdsw = '547.9+pshort_rf_base_m2_b_rdsw_diff_1'   
+prwb = -0.3235   
+prwg = 0.1376   
+wr = 1   
+u0 = '0.00305+pshort_rf_base_m2_b_u0_diff_1'   
+a0 = '0.8909+pshort_rf_base_m2_b_a0_diff_1'   
+keta = 0.0239   
+a1 = 0   
+a2 = 0.6419   
+ags = '1.25+pshort_rf_base_m2_b_ags_diff_1'   
+b0 = '0+pshort_rf_base_m2_b_b0_diff_1'   
+b1 = '0+pshort_rf_base_m2_b_b1_diff_1'   
*NEW BSIM4 Parameters(Mobility Parameters)
+eu         =        1.67                        
+rdswmin    =        0                           
+rdw = 547.9   
+rdwmin     =        0                           
+rsw = 547.9   
+rswmin     =        0                           
*****
*
* SUBTHRESHOLD CURRENT PARAMETERS
*
+voff = '-0.3374+pshort_rf_base_m2_b_voff_diff_1'	
+nfactor = '5.99+pshort_rf_base_m2_b_nfactor_diff_1'   
+cit = 0   
+cdsc = 0   
+cdscb = 0   
+cdscd = 0   
+eta0 = 0.1799   
+etab = -0.07835   
+dsub = 0.2663   
*NEW BSIM4 Parameters(Sub-threshold parameters)
+voffl = 0   
+minv = 0   
*****
*
* ROUT PARAMETERS
*
+pclm = 0.4678   
+pdiblc1 = 7.656e-11   
+pdiblc2 = 0   
+pdiblcb = -0.0001934   
+drout = 0.5264   
+pscbe1 = 5.12e+08   
+pscbe2 = 9.477e-08   
+pvag = 0   
+delta = 0.0521   
+alpha0 = 1e-10   
+alpha1 = 1e-10   
+beta0 = 8.581   
*NEW BSIM4 Parameters(ROUT Parameters)
+fprout = 0   
+pdits = 0   
+pditsl     =        0                           
+pditsd = 0   
****
*NEW BSIM4 Parameters(GATE INDUCED DRAIN LEAKAGE MODEL PARAMTERS)
+agidl = 3.016e-10   
+bgidl = 1e+09   
+cgidl = 300   
+egidl = 0.1   
****
*NEW BSIM4 Parameters(Gate Leakage Current Parameters)
+aigbacc = 0.43   
+bigbacc = 0.054   
+cigbacc = 0.075   
+nigbacc = 1   
+aigbinv = 0.35   
+bigbinv = 0.03   
+cigbinv = 0.006   
+eigbinv = 1.1   
+nigbinv = 3   
+aigc = 0.43   
+bigc = 0.054   
+cigc = 0.075   
+nigc = 1   
+aigsd = 0.43   
+bigsd = 0.054   
+cigsd = 0.075   
+dlcig = 0   
+poxedge = 1   
+pigcd = 1   
+ntox = 1   
+toxref     =        4.23e-09                    
*****
*
* TEMPERATURE EFFECTS PARAMETERS
*
+kt1 = '-0.556+pshort_rf_base_m2_b_kt1_diff_1'   
+kt2 = -0.122   
+at = 4.554e+04   
+ute = -0.39   
+ua1 = 1.346e-10   
+ub1 = 4.516e-19   
+uc1 = 6.005e-13   
+kt1l = 0   
+prt = 0   
*NEW BSIM4 Parameters(HIGH SPEED RF MODEL PARAMETERS)
+xrcrg1 = 10   
+xrcrg2 = 2   
+rbpb       =        '800*pshort_rf_base_b_rbpb_mult'   
+rbpd       =        0.001                       
+rbps       =        0.001                       
+rbdb       =        1e+05                       
+rbsb       =        1e+05                       
+gbmin      =        1e-12                       
****
*NEW BSIM4 Parameters(FLICKER and THERMAL NOISE PARAMETERS)
+noia       =        1.5e+42               
+noib       =        0.0               
+noic       =        0.0               
+em         =        4.1e+07                     
+af         =        1                           
+ef         =        1.0                        
+kf         =        0                           
+ntnoi      =        1                           
*****
*NEW BSIM4 Parameters(LAYOUT DEPENDENT PARASITIC MODEL PARAMETERS)
+dmcg       =        0                           
+dmcgt      =        0                           
+dmdg       =        0                           
+xgw        =        '7e-07+pshort_rf_base_b_xgw_diff'
+xgl        =        0                           
+ngcon      =        2                           
****
*
*DIODE DC IV PARAMTERS
*
*NEW BSIM4 Parameters(DIODE DC IV parameters)
+diomod     =        1
+njs        =        1.3632
+jss        =        2.1483e-05
+jsws       =        8.040000000000001e-10
+xtis       =        5.2
+bvs        =        12.69
+xjbvs      =        1
+ijthsrev   =        0.1
+ijthsfwd   =        0.1
*
* DIODE and FET CAPACITANCE PARAMETERS
*
+tpb        =        0.002039                    
+tpbsw      =        0.001246                    
+tpbswg     =        0                           
+tcj        =        0.001241                    
+tcjsw      =        0.0003736                   
+tcjswg     =        2e-12                       
+cgdo       =        '1.7e-10*pshort_rf_base_b_overlap_mult'   
+cgso       =        '1.505e-10*pshort_rf_base_b_overlap_mult'   
+cgbo       =        0                           
+capmod     =        2                           
+xpart      =        0                           
+cgsl       =        '1.001e-11*pshort_rf_base_b_overlap_mult'   
+cgdl       =        '2.12e-10*pshort_rf_base_b_overlap_mult'   
+cf         =        1.2e-11                     
+clc        =        0                           
+cle        =        0.6                         
+dlc        =        '-2e-09+pshort_rf_base_b_dlc_diff+pshort_rf_base_dlc_rotweak'   
+dwc        =        '0+pshort_rf_base_b_dwc_diff'   
+vfbcv      =        -0.1447                     
+acde       =        0.401                       
+moin       =        15                          
+noff       =        2.5                         
+voffcv     =        0.05                        
+ngate      =        1e+23                       
*NEW BSIM4 Parameters(FET and DIODE capacitance parameters)
+ckappas    =        0.6                         
+cjs        =        '0.0023*pshort_rf_base_b_ajunction_mult'   
+mjs        =        0.0862                      
+pbs        =        0.9587                      
+cjsws      =        '9.88e-11*pshort_rf_base_b_pjunction_mult'   
+mjsws      =        0.92                        
+pbsws      =        0.94                        
+cjswgs     =        '3.2e-10*pshort_rf_base_b_pjunction_mult'   
+mjswgs     =        0.12                        
+pbswgs     =        1                           
******

* BSIMTran Version 0.1.24, Created on 4-26-2002
* Username: hai
* Command Line: /proj/tlib/s8dia/config/cydir/bin/lnx86/bsimtran pmos_bsim4_RF.rf pmos -p -npshort_rf_base ps1p65p25m2x4_sim.pm ps1p65xp25m2x4_bsimtranoutput.pm 
* Working Directory: /home/hai/models/s8/s8dia/models.3.2/pshort/combined/beta1
* Time: Wed Dec 12 18:54:09 2007
* Rule File:  pmos_bsim4_RF.rf
* Output File:  ps1p65xp25m2x4_bsimtranoutput.pm
* Input Files:
* (1) ps1p65p25m2x4_sim.pm
*copyright, Cypress Semiconductor, 2002
*BSIM3.V3 PMOS Model

.model pshort_rf_base_m2_b.2 pmos
*
*DC IV MOS PARAMETERS
*
+lmin = 2.45e-07  lmax = 2.55e-07  wmin = 1.645e-06  wmax = 1.655e-06
+level      =        54                          
+tnom       =        30                          
+version    =        4.5                         
+toxm       =        4.23e-09                    
+xj = 1.5e-07   
+lln        =        1                           
+lwn        =        1                           
+wln        =        1                           
+wwn        =        1                           
+lint       =        '-1.399e-08+pshort_rf_base_b_lint_diff'   
+ll         =        0                           
+lw         =        0                           
+lwl        =        0                           
+wint       =        '7.304e-09+pshort_rf_base_b_wint_diff'   
+wl         =        0                           
+ww         =        0                           
+wwl        =        0                           
+xl         =        0                           
+xw         =        0                           
+mobmod     =        0                           
+binunit    =        2                           
+dwg = -5.722e-09   
+dwb = -1.786e-08   
*NEW BSIM4 Parameters(Model Selectors)
+igcmod     =        0                           
+igbmod     =        0                           
+rgatemod   =        3                           
+rbodymod   =        1                           
+trnqsmod   =        0                           
+acnqsmod   =        0                           
+fnoimod    =        1                           
+tnoimod    =        1                           
+permod     =        1                           
+geomod     =        0                           
+rdsmod     =        1                           
+tempmod    =        0                           
*******
*NEW BSIM4 Parameters(4.4 Version)
+lintnoi    =        -2.0e-07                           
+vfbsdoff   =        0                           
+lambda     =        0                           
+vtl        =        0                           
+lc         =        5e-09                       
+xn         =        3                           
+rnoia      =        0.69                        
+rnoib      =        0.34                        
+tnoia      =        25e6                        
+tnoib      =        0.0e-6                      
*NEW BSIM4 Parameters(Process Parameters)
+epsrox     =        3.9                         
+toxe       =        '4.23e-09*pshort_rf_base_b_toxe_mult'	
+dtox       =        0                           
+ndep = 1.62e+17   
+nsd = 1e+20   
+rshg       =        '49.2+pshort_rf_base_b_rshg_diff'   
****
+rsh        =        1                           
*
* THRESHOLD VOLTAGE PARAMETERS
*
+vth0 = '-0.945+pshort_rf_base_m2_b_vth0_diff_2'	
+k1 = 1.038   
+k2 = '-0.1734+pshort_rf_base_m2_b_k2_diff_2'   
+k3 = -15.85   
+dvt0 = 4.585   
+dvt1 = 0.294   
+dvt2 = 0.015   
+dvt0w = -4.977   
+dvt1w = 1.147e+06   
+dvt2w = -0.00896   
+w0 = 0   
+k3b = 2   
*NEW BSIM4 Parameters for Level 54
+phin = 0   
+lpe0 = 0   
+lpeb = 0   
+vbm = -3   
+dvtp0 = 0   
+dvtp1 = 0   
*
* MOBILITY PARAMETERS
*
+vsat = '7.4e+04+pshort_rf_base_m2_b_vsat_diff_2'   
+ua = '-2.199e-09+pshort_rf_base_m2_b_ua_diff_2'   
+ub = '1.855e-18+pshort_rf_base_m2_b_ub_diff_2'   
+uc = 2.523e-13   
+rdsw = '547.9+pshort_rf_base_m2_b_rdsw_diff_2'   
+prwb = -0.3235   
+prwg = 0.1376   
+wr = 1   
+u0 = '0.003331+pshort_rf_base_m2_b_u0_diff_2'   
+a0 = '0.8909+pshort_rf_base_m2_b_a0_diff_2'   
+keta = 0.0239   
+a1 = 0   
+a2 = 0.6419   
+ags = '1.25+pshort_rf_base_m2_b_ags_diff_2'   
+b0 = '0+pshort_rf_base_m2_b_b0_diff_2'   
+b1 = '0+pshort_rf_base_m2_b_b1_diff_2'   
*NEW BSIM4 Parameters(Mobility Parameters)
+eu         =        1.67                        
+rdswmin    =        0                           
+rdw = 547.9   
+rdwmin     =        0                           
+rsw = 547.9   
+rswmin     =        0                           
*****
*
* SUBTHRESHOLD CURRENT PARAMETERS
*
+voff = '-0.3104+pshort_rf_base_m2_b_voff_diff_2'	
+nfactor = '5.87+pshort_rf_base_m2_b_nfactor_diff_2'	
+cit = 0   
+cdsc = 0   
+cdscb = 0   
+cdscd = 0   
+eta0 = 0.1799   
+etab = -0.07835   
+dsub = 0.3036   
*NEW BSIM4 Parameters(Sub-threshold parameters)
+voffl = 0   
+minv = 0   
*****
*
* ROUT PARAMETERS
*
+pclm = 0.4678   
+pdiblc1 = 0.1   
+pdiblc2 = 0   
+pdiblcb = -0.0001934   
+drout = 0.7475   
+pscbe1 = 5.12e+08   
+pscbe2 = 9.477e-08   
+pvag = 0   
+delta = 0.0521   
+alpha0 = 1e-10   
+alpha1 = 1e-10   
+beta0 = 8.581   
*NEW BSIM4 Parameters(ROUT Parameters)
+fprout = 0   
+pdits = 0   
+pditsl     =        0                           
+pditsd = 0   
****
*NEW BSIM4 Parameters(GATE INDUCED DRAIN LEAKAGE MODEL PARAMTERS)
+agidl = 3.016e-10   
+bgidl = 1e+09   
+cgidl = 300   
+egidl = 0.1   
****
*NEW BSIM4 Parameters(Gate Leakage Current Parameters)
+aigbacc = 0.43   
+bigbacc = 0.054   
+cigbacc = 0.075   
+nigbacc = 1   
+aigbinv = 0.35   
+bigbinv = 0.03   
+cigbinv = 0.006   
+eigbinv = 1.1   
+nigbinv = 3   
+aigc = 0.43   
+bigc = 0.054   
+cigc = 0.075   
+nigc = 1   
+aigsd = 0.43   
+bigsd = 0.054   
+cigsd = 0.075   
+dlcig = 0   
+poxedge = 1   
+pigcd = 1   
+ntox = 1   
+toxref     =        4.23e-09                    
*****
*
* TEMPERATURE EFFECTS PARAMETERS
*
+kt1 = '-0.556+pshort_rf_base_m2_b_kt1_diff_2'   
+kt2 = -0.122   
+at = 4.554e+04   
+ute = -0.39   
+ua1 = 1.346e-10   
+ub1 = 4.516e-19   
+uc1 = 6.005e-13   
+kt1l = 0   
+prt = 0   
*NEW BSIM4 Parameters(HIGH SPEED RF MODEL PARAMETERS)
+xrcrg1 = 10   
+xrcrg2 = 2   
+rbpb       =        '800*pshort_rf_base_b_rbpb_mult'   
+rbpd       =        0.001                       
+rbps       =        0.001                       
+rbdb       =        1e+05                       
+rbsb       =        1e+05                       
+gbmin      =        1e-12                       
****
*NEW BSIM4 Parameters(FLICKER and THERMAL NOISE PARAMETERS)
+noia       =        1.5e+42               
+noib       =        0.0               
+noic       =        0.0               
+em         =        4.1e+07                     
+af         =        1                           
+ef         =        1.0                        
+kf         =        0                           
+ntnoi      =        1                           
*****
*NEW BSIM4 Parameters(LAYOUT DEPENDENT PARASITIC MODEL PARAMETERS)
+dmcg       =        0                           
+dmcgt      =        0                           
+dmdg       =        0                           
+xgw        =        '1e-06+pshort_rf_base_b_xgw_diff'
+xgl        =        0                           
+ngcon      =        2                           
****
*
*DIODE DC IV PARAMTERS
*
*NEW BSIM4 Parameters(DIODE DC IV parameters)
+diomod     =        1
+njs        =        1.3632
+jss        =        2.1483e-05
+jsws       =        8.040000000000001e-10
+xtis       =        5.2
+bvs        =        12.69
+xjbvs      =        1
+ijthsrev   =        0.1
+ijthsfwd   =        0.1
*
* DIODE and FET CAPACITANCE PARAMETERS
*
+tpb        =        0.002039                    
+tpbsw      =        0.001246                    
+tpbswg     =        0                           
+tcj        =        0.001241                    
+tcjsw      =        0.0003736                   
+tcjswg     =        2e-12                       
+cgdo       =        '1.4e-10*pshort_rf_base_b_overlap_mult'   
+cgso       =        '1.505e-10*pshort_rf_base_b_overlap_mult'   
+cgbo       =        0                           
+capmod     =        2                           
+xpart      =        0                           
+cgsl       =        '5.001e-11*pshort_rf_base_b_overlap_mult'   
+cgdl       =        '2.12e-10*pshort_rf_base_b_overlap_mult'   
+cf         =        1.2e-11                     
+clc        =        0                           
+cle        =        0.6                         
+dlc        =        '-4e-09+pshort_rf_base_b_dlc_diff+pshort_rf_base_dlc_rotweak'   
+dwc        =        '0+pshort_rf_base_b_dwc_diff'   
+vfbcv      =        -0.1447                     
+acde       =        0.401                       
+moin       =        15                          
+noff       =        2.5                         
+voffcv     =        0.05                        
+ngate      =        1e+23                       
*NEW BSIM4 Parameters(FET and DIODE capacitance parameters)
+ckappas    =        0.6                         
+cjs        =        '0.0023*pshort_rf_base_b_ajunction_mult'   
+mjs        =        0.0862                      
+pbs        =        0.9587                      
+cjsws      =        '9.88e-11*pshort_rf_base_b_pjunction_mult'   
+mjsws      =        0.92                        
+pbsws      =        0.94                        
+cjswgs     =        '3.2e-10*pshort_rf_base_b_pjunction_mult'   
+mjswgs     =        0.12                        
+pbswgs     =        1                           
******

* BSIMTran Version 0.1.24, Created on 4-26-2002
* Username: ovr
* Command Line: /proj/tlib/ll65p/config/cydir/bin/lnx86/bsimtran pmos_bsim4_RF_m2.rf pmos -p -npshort_rf_base ps3p15m2x2_iccap_ovr.pm ps3p15m2x2_bsimtranout.pm 
* Working Directory: /home/ovr/work/s8_work/models.3.2/rev_model/pshort/combined
* Time: Mon Apr 14 11:45:36 2008
* Rule File:  pmos_bsim4_RF_m2.rf
* Output File:  ps3p15m2x2_bsimtranout.pm
* Input Files:
* (1) ps3p15m2x2_iccap_ovr.pm
*copyright, Cypress Semiconductor, 2002
*BSIM3.V3 PMOS Model

.model pshort_rf_base_m2_b.3 pmos
*
*DC IV MOS PARAMETERS
*
+lmin = 1.45e-07   lmax = 1.55e-07   wmin = 3.005e-06   wmax = 3.015e-06   
+level      =        54                          
+tnom       =        30                          
+version    =        4.5                         
+toxm       =        4.23e-09                    
+xj = 1.5e-07   
+lln        =        1                           
+lwn        =        1                           