* BSIMTran Version 0.1.24, Created on 4-26-2002
* Username: qhc
* Command Line: /net/alexis/disk1/qhc/ICM_WA/qhc_ll65p25et_dev_125/config/cydir/bin/amd64/bsimtran pmos_bsim4.rf pmos -p -npshort pshort_sf_raw.pm3 pshort_sf.pm3 
* Working Directory: /proj/gpfs/qhc/s8-models/s8x/models.3.5/spice/benny
* Time: Wed Jan 14 14:38:29 2015
* Rule File:  pmos_bsim4.rf
* Output File:  pshort_sf.pm3
* Input Files:
* (1) pshort_sf_raw.pm3
*copyright, Cypress Semiconductor, 2007
*BSIM4.V5 PMOS Model

.model pshort.0 pmos
*
***MODEL FLAG PARAMETERS
*
+lmin = 2.0e-05   lmax = 0.0001   wmin = 7.0e-06   wmax = 0.0001   
+level      =        54.0                        
+version    =        4.5                         
+binunit    =        2.0                         
+mobmod     =        0.0                         
+capmod     =        2.0                         
+igcmod     =        0.0                         
+igbmod     =        0.0                         
+geomod     =        0.0                         
+diomod     =        1.0                         
+rdsmod     =        0.0                         
+rbodymod   =        1.0                         
+rgatemod   =        0.0                         
+permod     =        1.0                         
+acnqsmod   =        0.0                         
+trnqsmod   =        0.0                         
+fnoimod    =        1.0                         
+tnoimod    =        1.0                         
+tempmod    =        0.0                         
***PROCESS PARAMETERS
+toxe       =        4.44996e-09	
+toxm       =        4.23e-09                    
+dtox       =        0.0                         
+epsrox     =        3.9                         
+xj = 1.5e-07   
+ngate = 1.0e+23   
+ndep = 1.7e+17   
+nsd = 1.0e+20   
+rsh        =        1.0                         
+rshg       =        0.1                         
***BASIC MODEL PARAMETERS
+wint       =        3.94789e-08	   
+lint       =        -3.1319e-08	   
+vth0 = -1.069382	
+k1 = 0.43448553   
+k2 = 0.018008346   
+k3 = -15.845   
+k3b = 2.0   
+w0 = 0.0   
+dvt0 = 4.4955   
+dvt1 = 0.294   
+dvt2 = 0.015   
+dvt0w = -4.9772   
+dvt1w = 1147200.0   
+dvt2w = -0.00896   
+dsub = 0.56   
+minv = 0.0   
+voffl      =        0.0                         
+lpe0 = 0.0   
+lpeb = 0.0   
+vbm = -3.0   
+dvtp0 = 0.0   
+dvtp1 = 0.0   
+phin = 0.0   
+cdsc = 0.00013   
+cdscb = 0.00078   
+cdscd = 0.0   
+cit = 1.0e-05   
+voff = -0.22144045	
+nfactor = 1.2879038	
+eta0 = 0.08   
+etab = -0.07   
+u0 = 0.0097753	   
+ua = -5.6113816e-10   
+ub = 7.7273446e-19   
+uc = -6.6549964e-11   
+ud = 0.0   
+up = 0.0   
+lp = 1.0   
+eu = 1.67   
+vtl = 0.0   
+xn = 3.0   
+vsat = 160312.5   
+a0 = 1.33379   
+ags = 0.1474578   
+a1 = 0.0   
+a2 = 0.9995   
+b0 = 0.0   
+b1 = 0.0   
+keta = 0.0051290095   
+dwg = -5.722e-09   
+dwb = -1.7864e-08   
+pclm = 0.0015228006   
+pdiblc1 = 0.39   
+pdiblc2 = 0.0029632464   
+pdiblcb = -0.025   
+drout = 0.56   
+pscbe1 = 800000000.0   
+pscbe2 = 9.3760948e-09   
+pvag = 0.0   
+delta = 0.01   
+fprout = 0.0   
+pdits = 0.0   
+pditsl     =        0.0                         
+pditsd = 0.0   
+lambda     =        0.0                         
+lc         =        5.0e-09                     
***PARAMETERS FOR ASYMMETRIC AND BIAS-DEPENDENT RDS MODEL******
+rdsw = 547.88   
+rsw = 0.0   
+rdw = 0.0   
+rdswmin    =        0.0                         
+rdwmin     =        0.0                         
+rswmin     =        0.0                         
+prwb = -0.32348   
+prwg = 0.1376   
+wr = 1.0   
***IMPACT IONIZATION CURRENT MODEL PARAMTERS******************
+alpha0 = 1.0e-10   
+alpha1 = 1.0e-10   
+beta0 = 4.6464006   
***GIDL INDUCED DRAIN LEAKAGE MODEL PARAMETERS*****************
+agidl = 1.0e-10   
+bgidl = 1181082000.0   
+cgidl = 300.0   
+egidl = 0.1   
***GATE DIELECTRIC TUNNELING CURRENT MODEL PARAMETERS**********
+toxref     =        4.23e-09                    
+dlcig = 0.0   
+aigbacc = 0.43   
+bigbacc = 0.054   
+cigbacc = 0.075   
+nigbacc = 1.0   
+aigbinv = 0.35   
+bigbinv = 0.03   
+cigbinv = 0.006   
+eigbinv = 1.1   
+nigbinv = 3.0   
+aigc = 0.43   
+bigc = 0.054   
+cigc = 0.075   
+aigsd = 0.43   
+bigsd = 0.054   
+cigsd = 0.075   
+nigc = 1.0   
+poxedge = 1.0   
+pigcd = 1.0   
+ntox = 1.0   
+vfbsdoff   =        0.0                         
***CHARGE AND CAPACITANCE MODEL PARAMETERS********************
+dlc        =        -2.0325e-08                 
+dwc        =        3.2175e-08                  
+xpart      =        0.0                         
+cgso       =        6.5637e-11                  
+cgdo       =        6.5637e-11                  
+cgbo       =        0.0                         
+cgdl = 1.1939967e-11   
+cgsl = 1.1939967e-11   
+clc = 1.0e-07   
+cle = 0.6   
+cf = 1.2e-11   
+ckappas = 0.6   
+vfbcv = -0.14469   
+acde = 0.8   
+moin = 18.13   
+noff = 3.9   
+voffcv = -0.10701   
***HIGH-SPEED/RF MODEL PARAMETERS******************************
+xrcrg1     =        12.0                        
+xrcrg2     =        1.0                         
+rbpb       =        50.0                        
+rbpd       =        50.0                        
+rbps       =        50.0                        
+rbdb       =        50.0                        
+rbsb       =        50.0                        
+gbmin      =        1.0e-12                     
***FLICKER AND THERMAL NOISE MODEL PARAMETERS******************
+ef         =        1.0                         
+noia       =        1.5e+42                     
+noib       =        0.0                         
+noic       =        0.0                         
+em         =        41000000.0                  
+ntnoi      =        1.0                         
+lintnoi    =        -2.0e-07                    
+af         =        1.0                         
+kf         =        0.0                         
+tnoia      =        25000000.0                  
+tnoib      =        0.0                         
+rnoia      =        0.69                        
+rnoib      =        0.34                        
***LAYOUT-DEPENDENT PARASITICS MODEL PARAMETERS****************
+xl         =        0.0                         
+xw         =        0.0                         
+dmcg       =        0.0                         
+dmdg       =        0.0                         
+dmcgt      =        0.0                         
+xgw        =        0.0                         
+xgl        =        0.0                         
+ngcon      =        1.0                         
***ASYMMETRIC SOURCE/DRAIN JUNCTION DIODE MODEL PARAMETERS*****
+jss        =        2.1483e-05                  
+jsws       =        8.04e-10                    
+ijthsfwd   =        0.1                         
+ijthsrev   =        0.1                         
+bvs        =        12.69                       
+xjbvs      =        1.0                         
+pbs        =        0.6587                      
+cjs        =        0.000808127811              
+mjs        =        0.34629                     
+pbsws      =        0.7418                      
+cjsws      =        1.082848e-10                
+mjsws      =        0.29781                     
+pbswgs     =        1.4338                      
+cjswgs     =        2.6187824e-10               
+mjswgs     =        0.9274                      

***TEMPERATURE DEPENDENCE PARAMETERS***************************
+tnom       =        30.0                        
+kt1 = -0.4485   
+kt2 = -0.0075706   
+at = 90900.0   
+ute = -0.33954   
+ua1 = 1.6104e-09   
+ub1 = -5.609e-19   
+uc1 = -1.0858e-10   
+kt1l = 0.0   
+prt = 0.0   
+tvoff = 0.0   
+njs        =        1.3632                      
+tpb        =        0.0020386                   
+tcj        =        0.0012407                   
+tpbsw      =        0.001246                    
+tcjsw      =        0.00037357                  
+tpbswg     =        0.0                         
+tcjswg     =        2.0e-12                     
+xtis       =        5.2                         
+tvfbsdoff  =        0.0                         
***DW AND DL PARAMETERS****************************************
+ll         =        0.0                         
+wl         =        0.0                         
+lln        =        1.0                         
+wln        =        1.0                         
+lw         =        0.0                         
+ww         =        0.0                         
+lwn        =        1.0                         
+wwn        =        1.0                         
+lwl        =        0.0                         
+wwl        =        0.0                         
+llc        =        0.0                         
+wlc        =        0.0                         
+lwc        =        0.0                         
+wwc        =        0.0                         
+lwlc       =        0.0                         
+wwlc       =        0.0                         
***STRESS PARAMETERS*******************************************
+saref      =        3.0e-06                     
+sbref      =        3.0e-06                     
+kvth0      =        3.29e-08                    
+lkvth0     =        0.0                         
+wkvth0     =        2.0e-07                     
+pkvth0     =        0.0                         
+llodvth    =        0.0                         
+wlodvth    =        1.0                         
+wlod       =        0.0                         
+stk2       =        0.0                         
+lodk2      =        1.0                         
+lodeta0    =        1.0                         
+ku0        =        4.5e-08                     
+lku0       =        0.0                         
+wku0       =        2.5e-07                     
+pku0       =        0.0                         
+tku0       =        0.0                         
+llodku0    =        0.0                         
+wlodku0    =        1.0                         
+kvsat      =        0.5                         
+steta0     =        0.0                         
***WELL PROXIMITY EFFECT PARAMETERS****************************
******

.model pshort.1 pmos
*
***MODEL FLAG PARAMETERS
*
+lmin = 8.0e-06   lmax = 2.0e-05   wmin = 7.0e-06   wmax = 0.0001   
+level      =        54.0                        
+version    =        4.5                         
+binunit    =        2.0                         
+mobmod     =        0.0                         
+capmod     =        2.0                         
+igcmod     =        0.0                         
+igbmod     =        0.0                         
+geomod     =        0.0                         
+diomod     =        1.0                         
+rdsmod     =        0.0                         
+rbodymod   =        1.0                         
+rgatemod   =        0.0                         
+permod     =        1.0                         
+acnqsmod   =        0.0                         
+trnqsmod   =        0.0                         
+fnoimod    =        1.0                         
+tnoimod    =        1.0                         
+tempmod    =        0.0                         
***PROCESS PARAMETERS
+toxe       =        4.44996e-09	
+toxm       =        4.23e-09                    
+dtox       =        0.0                         
+epsrox     =        3.9                         
+xj = 1.5e-07   
+ngate = 1.0e+23   
+ndep = 1.7e+17   
+nsd = 1.0e+20   
+rsh        =        1.0                         
+rshg       =        0.1                         
***BASIC MODEL PARAMETERS
+wint       =        3.94789e-08	   
+lint       =        -3.1319e-08	   
+vth0 = -1.069382	
+k1 = 0.43448553   
+k2 = 0.018008346   
+k3 = -15.845   
+k3b = 2.0   
+w0 = 0.0   
+dvt0 = 4.4955   
+dvt1 = 0.294   
+dvt2 = 0.015   
+dvt0w = -4.9772   
+dvt1w = 1147200.0   
+dvt2w = -0.00896   
+dsub = 0.56   
+minv = 0.0   
+voffl      =        0.0                         
+lpe0 = 0.0   
+lpeb = 0.0   
+vbm = -3.0   
+dvtp0 = 0.0   
+dvtp1 = 0.0   
+phin = 0.0   
+cdsc = 0.00013   
+cdscb = 0.00078   
+cdscd = 0.0   
+cit = 1.0e-05   
+voff = -0.22144045	
+nfactor = 1.2879038	
+eta0 = 0.08   
+etab = -0.07   
+u0 = 0.0097753	   
+ua = -5.6113816e-10   
+ub = 7.7273446e-19   
+uc = -6.6549964e-11   
+ud = 0.0   
+up = 0.0   
+lp = 1.0   
+eu = 1.67   
+vtl = 0.0   
+xn = 3.0   
+vsat = 160312.5   
+a0 = 1.33379   
+ags = 0.1474578   
+a1 = 0.0   
+a2 = 0.9995   
+b0 = 0.0   
+b1 = 0.0   
+keta = 0.0051290095   
+dwg = -5.722e-09   
+dwb = -1.7864e-08   
+pclm = 0.0015228006   
+pdiblc1 = 0.39   
+pdiblc2 = 0.0029632464   
+pdiblcb = -0.025   
+drout = 0.56   
+pscbe1 = 800000000.0   
+pscbe2 = 9.3760948e-09   
+pvag = 0.0   
+delta = 0.01   
+fprout = 0.0   
+pdits = 0.0   
+pditsl     =        0.0                         
+pditsd = 0.0   
+lambda     =        0.0                         
+lc         =        5.0e-09                     
***PARAMETERS FOR ASYMMETRIC AND BIAS-DEPENDENT RDS MODEL******
+rdsw = 547.88   
+rsw = 0.0   
+rdw = 0.0   
+rdswmin    =        0.0                         
+rdwmin     =        0.0                         
+rswmin     =        0.0                         
+prwb = -0.32348   
+prwg = 0.1376   
+wr = 1.0   
***IMPACT IONIZATION CURRENT MODEL PARAMTERS******************
+alpha0 = 1.0e-10   
+alpha1 = 1.0e-10   
+beta0 = 4.6464006   
***GIDL INDUCED DRAIN LEAKAGE MODEL PARAMETERS*****************
+agidl = 1.0e-10   
+bgidl = 1181082000.0   
+cgidl = 300.0   
+egidl = 0.1   
***GATE DIELECTRIC TUNNELING CURRENT MODEL PARAMETERS**********
+toxref     =        4.23e-09                    
+dlcig = 0.0   
+aigbacc = 0.43   
+bigbacc = 0.054   
+cigbacc = 0.075   
+nigbacc = 1.0   
+aigbinv = 0.35   
+bigbinv = 0.03   
+cigbinv = 0.006   
+eigbinv = 1.1   
+nigbinv = 3.0   
+aigc = 0.43   
+bigc = 0.054   
+cigc = 0.075   
+aigsd = 0.43   
+bigsd = 0.054   
+cigsd = 0.075   
+nigc = 1.0   
+poxedge = 1.0   
+pigcd = 1.0   
+ntox = 1.0   
+vfbsdoff   =        0.0                         
***CHARGE AND CAPACITANCE MODEL PARAMETERS********************
+dlc        =        -2.0325e-08                 
+dwc        =        3.2175e-08                  
+xpart      =        0.0                         
+cgso       =        6.5637e-11                  
+cgdo       =        6.5637e-11                  
+cgbo       =        0.0                         
+cgdl = 1.1939967e-11   
+cgsl = 1.1939967e-11   
+clc = 1.0e-07   
+cle = 0.6   
+cf = 1.2e-11   
+ckappas = 0.6   
+vfbcv = -0.14469   
+acde = 0.8   
+moin = 18.13   
+noff = 3.9   
+voffcv = -0.10701   
***HIGH-SPEED/RF MODEL PARAMETERS******************************
+xrcrg1     =        12.0                        
+xrcrg2     =        1.0                         
+rbpb       =        50.0                        
+rbpd       =        50.0                        
+rbps       =        50.0                        
+rbdb       =        50.0                        
+rbsb       =        50.0                        
+gbmin      =        1.0e-12                     
***FLICKER AND THERMAL NOISE MODEL PARAMETERS******************
+ef         =        1.0                         
+noia       =        1.5e+42                     
+noib       =        0.0                         
+noic       =        0.0                         
+em         =        41000000.0                  
+ntnoi      =        1.0                         
+lintnoi    =        -2.0e-07                    
+af         =        1.0                         
+kf         =        0.0                         
+tnoia      =        25000000.0                  
+tnoib      =        0.0                         
+rnoia      =        0.69                        
+rnoib      =        0.34                        
***LAYOUT-DEPENDENT PARASITICS MODEL PARAMETERS****************
+xl         =        0.0                         
+xw         =        0.0                         
+dmcg       =        0.0                         
+dmdg       =        0.0                         
+dmcgt      =        0.0                         
+xgw        =        0.0                         
+xgl        =        0.0                         
+ngcon      =        1.0                         
***ASYMMETRIC SOURCE/DRAIN JUNCTION DIODE MODEL PARAMETERS*****
+jss        =        2.1483e-05                  
+jsws       =        8.04e-10                    
+ijthsfwd   =        0.1                         
+ijthsrev   =        0.1                         
+bvs        =        12.69                       
+xjbvs      =        1.0                         
+pbs        =        0.6587                      
+cjs        =        0.000808127811              
+mjs        =        0.34629                     
+pbsws      =        0.7418                      
+cjsws      =        1.082848e-10                
+mjsws      =        0.29781                     
+pbswgs     =        1.4338                      
+cjswgs     =        2.6187824e-10               
+mjswgs     =        0.9274                      

***TEMPERATURE DEPENDENCE PARAMETERS***************************
+tnom       =        30.0                        
+kt1 = -0.4485   
+kt2 = -0.0075706   
+at = 90900.0   
+ute = -0.33954   
+ua1 = 1.6104e-09   
+ub1 = -5.609e-19   
+uc1 = -1.0858e-10   
+kt1l = 0.0   
+prt = 0.0   
+tvoff = 0.0   
+njs        =        1.3632                      
+tpb        =        0.0020386                   
+tcj        =        0.0012407                   
+tpbsw      =        0.001246                    
+tcjsw      =        0.00037357                  
+tpbswg     =        0.0                         
+tcjswg     =        2.0e-12                     
+xtis       =        5.2                         
+tvfbsdoff  =        0.0                         
***DW AND DL PARAMETERS****************************************
+ll         =        0.0                         
+wl         =        0.0                         
+lln        =        1.0                         
+wln        =        1.0                         
+lw         =        0.0                         
+ww         =        0.0                         
+lwn        =        1.0                         
+wwn        =        1.0                         
+lwl        =        0.0                         
+wwl        =        0.0                         
+llc        =        0.0                         
+wlc        =        0.0                         
+lwc        =        0.0                         
+wwc        =        0.0                         
+lwlc       =        0.0                         
+wwlc       =        0.0                         
***STRESS PARAMETERS*******************************************
+saref      =        3.0e-06                     
+sbref      =        3.0e-06                     
+kvth0      =        3.29e-08                    
+lkvth0     =        0.0                         
+wkvth0     =        2.0e-07                     
+pkvth0     =        0.0                         
+llodvth    =        0.0                         
+wlodvth    =        1.0                         
+wlod       =        0.0                         
+stk2       =        0.0                         
+lodk2      =        1.0                         
+lodeta0    =        1.0                         
+ku0        =        4.5e-08                     
+lku0       =        0.0                         
+wku0       =        2.5e-07                     
+pku0       =        0.0                         
+tku0       =        0.0                         
+llodku0    =        0.0                         
+wlodku0    =        1.0                         
+kvsat      =        0.5                         
+steta0     =        0.0                         
***WELL PROXIMITY EFFECT PARAMETERS****************************
******

.model pshort.2 pmos
*
***MODEL FLAG PARAMETERS
*
+lmin = 4.0e-06   lmax = 8.0e-06   wmin = 7.0e-06   wmax = 0.0001   
+level      =        54.0                        
+version    =        4.5                         
+binunit    =        2.0                         
+mobmod     =        0.0                         
+capmod     =        2.0                         
+igcmod     =        0.0                         
+igbmod     =        0.0                         
+geomod     =        0.0                         
+diomod     =        1.0                         
+rdsmod     =        0.0                         
+rbodymod   =        1.0                         
+rgatemod   =        0.0                         
+permod     =        1.0                         
+acnqsmod   =        0.0                         
+trnqsmod   =        0.0                         
+fnoimod    =        1.0                         
+tnoimod    =        1.0                         
+tempmod    =        0.0                         
***PROCESS PARAMETERS
+toxe       =        4.44996e-09	
+toxm       =        4.23e-09                    
+dtox       =        0.0                         
+epsrox     =        3.9                         
+xj = 1.5e-07   
+ngate = 1.0e+23   
+ndep = 1.7e+17   
+nsd = 1.0e+20   
+rsh        =        1.0                         
+rshg       =        0.1                         
***BASIC MODEL PARAMETERS
+wint       =        3.94789e-08	   
+lint       =        -3.1319e-08	   
+vth0 = -1.069208456e+00	
+k1 = 4.342117128e-01   lk1 = 2.207688646e-09   wk1 = 2.736009609e-08   pk1 = -2.205945504e-13   
+k2 = 1.812220541e-02   lk2 = -9.180071831e-10   wk2 = -1.137695063e-08   pk2 = 9.172823448e-14   
+k3 = -15.845   
+k3b = 2.0   
+w0 = 0.0   
+dvt0 = 4.4955   
+dvt1 = 0.294   
+dvt2 = 0.015   
+dvt0w = -4.9772   
+dvt1w = 1147200.0   
+dvt2w = -0.00896   
+dsub = 0.56   
+minv = 0.0   
+voffl      =        0.0                         
+lpe0 = 0.0   
+lpeb = 0.0   
+vbm = -3.0   
+dvtp0 = 0.0   
+dvtp1 = 0.0   
+phin = 0.0   
+cdsc = 0.00013   
+cdscb = 0.00078   
+cdscd = 0.0   
+cit = 1.0e-05   
+voff = -2.209896819e-01	
+nfactor = 1.300841285e+00	
+eta0 = 0.08   
+etab = -0.07   
+u0 = 9.783871360e-03	   lu0 = -6.910777322e-11   wu0 = -8.564592289e-10   pu0 = 6.905320724e-15   
+ua = -5.603056451e-10   lua = -6.712266158e-18   wua = -8.318575509e-17   pua = 6.706966300e-22   
+ub = 7.716388308e-19   lub = 8.833661500e-27   wub = 1.094764100e-25   pub = -8.826686635e-31   
+uc = -6.604890587e-11   luc = -4.039850285e-18   wuc = -5.006625013e-17   puc = 4.036660508e-22   
+ud = 0.0   
+up = 0.0   
+lp = 1.0   
+eu = 1.67   
+vtl = 0.0   
+xn = 3.0   
+vsat = 1.522343333e+05   lvsat = 6.513133389e-02   wvsat = 8.071788368e-01   pvsat = -6.507990762e-06   
+a0 = 1.323305579e+00   la0 = 8.453209192e-08   wa0 = 1.047614283e-06   pa0 = -8.446534724e-12   
+ags = 1.558909934e-01   lags = -6.799378517e-08   wags = -8.426534687e-07   pags = 6.794009877e-12   
+a1 = 0.0   
+a2 = 9.844207555e-01   la2 = 1.215784899e-07   wa2 = 1.506733829e-06   pa2 = -1.214824942e-11   
+b0 = 0.0   
+b1 = 0.0   
+keta = 3.903443750e-03   lketa = 9.881292988e-09   wketa = 1.224598070e-07   pketa = -9.873490936e-13   
+dwg = -5.722e-09   
+dwb = -1.7864e-08   
+pclm = 3.418316454e-02   lpclm = -2.633286914e-07   wpclm = -3.263457604e-06   ppclm = 2.631207729e-11   
+pdiblc1 = 0.39   
+pdiblc2 = 2.751131759e-03   lpdiblc2 = 1.710203561e-09   wpdiblc2 = 2.119471595e-08   ppdiblc2 = -1.708853222e-13   
+pdiblcb = -0.025   
+drout = 0.56   
+pscbe1 = 800000000.0   
+pscbe2 = 9.318626839e-09   lpscbe2 = 4.633433647e-16   wpscbe2 = 5.742258538e-15   ppscbe2 = -4.629775190e-20   
+pvag = 0.0   
+delta = 0.01   
+fprout = 0.0   
+pdits = 0.0   
+pditsl     =        0.0                         
+pditsd = 0.0   
+lambda     =        0.0                         
+lc         =        5.0e-09                     
***PARAMETERS FOR ASYMMETRIC AND BIAS-DEPENDENT RDS MODEL******
+rdsw = 547.88   
+rsw = 0.0   
+rdw = 0.0   
+rdswmin    =        0.0                         
+rdwmin     =        0.0                         
+rswmin     =        0.0                         
+prwb = -0.32348   
+prwg = 0.1376   
+wr = 1.0   
***IMPACT IONIZATION CURRENT MODEL PARAMTERS******************
+alpha0 = 1.0e-10   
+alpha1 = 1.0e-10   
+beta0 = 4.751629222e+00   lbeta0 = -8.484202870e-07   wbeta0 = -1.051455359e-05   pbeta0 = 8.477503930e-11   
***GIDL INDUCED DRAIN LEAKAGE MODEL PARAMETERS*****************
+agidl = 1.011809119e-10   lagidl = -9.521265561e-18   wagidl = -1.179979528e-16   pagidl = 9.513747779e-22   
+bgidl = 1.167394883e+09   lbgidl = 1.103542662e+02   wbgidl = 1.367630953e+03   pbgidl = -1.102671329e-02   
+cgidl = 300.0   
+egidl = 0.1   
***GATE DIELECTRIC TUNNELING CURRENT MODEL PARAMETERS**********
+toxref     =        4.23e-09                    
+dlcig = 0.0   
+aigbacc = 0.43   
+bigbacc = 0.054   
+cigbacc = 0.075   
+nigbacc = 1.0   
+aigbinv = 0.35   
+bigbinv = 0.03   
+cigbinv = 0.006   
+eigbinv = 1.1   
+nigbinv = 3.0   
+aigc = 0.43   
+bigc = 0.054   
+cigc = 0.075   
+aigsd = 0.43   
+bigsd = 0.054   
+cigsd = 0.075   
+nigc = 1.0   
+poxedge = 1.0   
+pigcd = 1.0   
+ntox = 1.0   
+vfbsdoff   =        0.0                         
***CHARGE AND CAPACITANCE MODEL PARAMETERS********************
+dlc        =        -2.0325e-08                 
+dwc        =        3.2175e-08                  
+xpart      =        0.0                         
+cgso       =        6.5637e-11                  
+cgdo       =        6.5637e-11                  
+cgbo       =        0.0                         
+cgdl = 1.1939967e-11   
+cgsl = 1.1939967e-11   
+clc = 1.0e-07   
+cle = 0.6   
+cf = 1.2e-11   
+ckappas = 0.6   
+vfbcv = -0.14469   
+acde = 0.8   
+moin = 18.13   
+noff = 3.9   
+voffcv = -0.10701   
***HIGH-SPEED/RF MODEL PARAMETERS******************************
+xrcrg1     =        12.0                        
+xrcrg2     =        1.0                         
+rbpb       =        50.0                        
+rbpd       =        50.0                        
+rbps       =        50.0                        
+rbdb       =        50.0                        
+rbsb       =        50.0                        
+gbmin      =        1.0e-12                     
***FLICKER AND THERMAL NOISE MODEL PARAMETERS******************
+ef         =        1.0                         
+noia       =        1.5e+42                     
+noib       =        0.0                         
+noic       =        0.0                         
+em         =        41000000.0                  
+ntnoi      =        1.0                         
+lintnoi    =        -2.0e-07                    
+af         =        1.0                         
+kf         =        0.0                         
+tnoia      =        25000000.0                  
+tnoib      =        0.0                         
+rnoia      =        0.69                        
+rnoib      =        0.34                        
***LAYOUT-DEPENDENT PARASITICS MODEL PARAMETERS****************
+xl         =        0.0                         
+xw         =        0.0                         
+dmcg       =        0.0                         
+dmdg       =        0.0                         
+dmcgt      =        0.0                         
+xgw        =        0.0                         
+xgl        =        0.0                         
+ngcon      =        1.0                         
***ASYMMETRIC SOURCE/DRAIN JUNCTION DIODE MODEL PARAMETERS*****
+jss        =        2.1483e-05                  
+jsws       =        8.04e-10                    
+ijthsfwd   =        0.1                         
+ijthsrev   =        0.1                         
+bvs        =        12.69                       
+xjbvs      =        1.0                         
+pbs        =        0.6587                      
+cjs        =        0.000808127811              
+mjs        =        0.34629                     
+pbsws      =        0.7418                      
+cjsws      =        1.082848e-10                
+mjsws      =        0.29781                     
+pbswgs     =        1.4338                      
+cjswgs     =        2.6187824e-10               
+mjswgs     =        0.9274                      

***TEMPERATURE DEPENDENCE PARAMETERS***************************
+tnom       =        30.0                        
+kt1 = -4.497704917e-01   lkt1 = 1.024351492e-08   wkt1 = 1.269488580e-07   pkt1 = -1.023542687e-12   
+kt2 = -8.874723436e-03   lkt2 = 1.051467518e-08   wkt2 = 1.303093729e-07   pkt2 = -1.050637302e-12   
+at = 9.112817429e+04   lat = -1.839686707e-03   wat = -2.279941293e-02   pat = 1.838234131e-07   
+ute = -3.294156335e-01   lute = -8.162910229e-08   wute = -1.011637255e-06   pute = 8.156464974e-12   
+ua1 = 1.639412943e-09   lua1 = -2.339208539e-16   wua1 = -2.899003467e-15   pua1 = 2.337361552e-20   
+ub1 = -5.805284689e-19   lub1 = 1.582572395e-25   wub1 = 1.961297072e-24   pub1 = -1.581322830e-29   
+uc1 = -1.101019924e-10   luc1 = 1.227127350e-17   wuc1 = 1.520790636e-16   puc1 = -1.226158437e-21   
+kt1l = 0.0   
+prt = 0.0   
+tvoff = 0.0   
+njs        =        1.3632                      
+tpb        =        0.0020386                   
+tcj        =        0.0012407                   
+tpbsw      =        0.001246                    
+tcjsw      =        0.00037357                  
+tpbswg     =        0.0                         
+tcjswg     =        2.0e-12                     
+xtis       =        5.2                         
+tvfbsdoff  =        0.0                         
***DW AND DL PARAMETERS****************************************
+ll         =        0.0                         
+wl         =        0.0                         
+lln        =        1.0                         
+wln        =        1.0                         
+lw         =        0.0                         
+ww         =        0.0                         
+lwn        =        1.0                         