* BSIMTran Version 0.1.24, Created on 4-26-2002
* Username: hai
* Command Line: /home/hai/config/cydir/bin/lnx86/bsimtran nmos_bsim4.rf nmos -p -nnhv nhv_modelnamechanged.pm3 nhv_ov.pm ndiode_h_m31_iv.pm ndiode_h_m31_cv.pm nhv_bsimtranoutput.pm3 
* Working Directory: /home/hai/models/s8/s8tee/models.3.1/nhv/combined
* Time: Fri Jun  8 14:35:41 2007
* Rule File:  nmos_bsim4.rf
* Output File:  nhv_bsimtranoutput.pm3
* Input Files:
* (1) nhv_modelnamechanged.pm3
* (2) nhv_ov.pm
* (3) ndiode_h_m31_iv.pm
* (4) ndiode_h_m31_cv.pm
*copyright, Cypress Semiconductor, 2002
*BSIM3.V3 NMOS Model

.subckt nhv d g s b l=100.0u w=100.0u ad=0 as=0 pd=0 ps=0 nrd=1 nrs=1 rdc=0.0 rsc=0.0 m=1 dtemp=0 nf=1 geo=0.0 delvto=0.0 sa=0.0 sb=0.0 sd=0.0
.model nhv_mod.0 nmos
*
*DC IV MOS PARAMETERS
*
+lmin = 4.95e-07  lmax = 5.05e-07  wmin = 9.995e-06  wmax = 1.0005e-05
+level      =        54                          
+tnom       =        30                          
+version    =        4.5                         
+toxm       =        1.16e-008                   
+xj = 1.5e-007   
+lln        =        1                           
+lwn        =        1                           
+wln        =        1                           
+wwn        =        1                           
+lint       =        '7.6507e-008+nhv_lint_diff'	   
+ll         =        0                           
+lw         =        0                           
+lwl        =        0                           
+wint       =        '2.1346e-008+nhv_wint_diff'	   
+wl         =        0                           
+ww         =        0                           
+wwl        =        0                           
+xl         =        0                           
+xw         =        0                           
+mobmod     =        0                           
+binunit    =        2                           
+dwg = -4.1292e-009   
+dwb = -1.6944e-009   
*NEW BSIM4 Parameters(Model Selectors)
+igcmod     =        0                           
+igbmod     =        0                           
+rgatemod   =        0                           
+rbodymod   =        1                           
+trnqsmod   =        0                           
+acnqsmod   =        0                           
+fnoimod    =        1                           
+tnoimod    =        1                           
+permod     =        1                           
+geomod     =        0                           
+rdsmod     =        0                           
+tempmod    =        0                           
*******
*NEW BSIM4 Parameters(4.4 Version)
+lintnoi    =        0.0                           
+vfbsdoff   =        0                           
+lambda     =        0                           
+vtl        =        0                           
+lc         =        5e-009                      
+xn         =        3                           
+rnoia      =        0.794
+rnoib      =        0.38
+tnoia     =         7.5e6
+tnoib     =        7.2e6
*NEW BSIM4 Parameters(Process Parameters)
+epsrox     =        3.9                         
+toxe       =        '1.16e-008*nhv_toxe_mult'	
+dtox       =        0                           
+ndep = 1.7e+017   
+nsd = 1e+020   
+rshg       =        0.1                         
****
+rsh        =        '1*nhv_rshn_mult'           
*
* THRESHOLD VOLTAGE PARAMETERS
*
+vth0 = '0.84203+nhv_vth0_diff_0'	   
+k1 = 0.88325   
+k2 = '-0.029179+nhv_k2_diff_0'   
+k3 = -0.884   
+dvt0 = 0   
+dvt1 = 0.53   
+dvt2 = -0.19251   
+dvt0w = 0.16   
+dvt1w = 6909100   
+dvt2w = -0.036016   
+w0 = 0   
+k3b = 0.43   
*NEW BSIM4 Parameters for Level 54
+phin = 0   
+lpe0 = 2.5e-008   
+lpeb = -2.182e-007   
+vbm = -3   
+dvtp0 = 0   
+dvtp1 = 0   
*
* MOBILITY PARAMETERS
*
+vsat = '107890+nhv_vsat_diff_0'   
+ua = '-1.498e-010+nhv_ua_diff_0'   
+ub = '2.1238e-018+nhv_ub_diff_0'   
+uc = 6.6204e-011   
+rdsw = '724.62+nhv_rdsw_diff_0'   
+prwb = 0.05626   
+prwg = 0.048   
+wr = 1   
+u0 = '0.045006+nhv_u0_diff_0'   
+a0 = '1.1222+nhv_a0_diff_0'   
+keta = '-0.01066+nhv_keta_diff_0'   
+a1 = 0   
+a2 = 0.65972622   
+ags = '0.16025+nhv_ags_diff_0'   
+b0 = '3.2933e-008+nhv_b0_diff_0'   
+b1 = '0+nhv_b1_diff_0'   
*NEW BSIM4 Parameters(Mobility Parameters)
+eu         =        1.67                        
+rdswmin    =        0                           
+rdw = 0   
+rdwmin     =        0                           
+rsw = 0   
+rswmin     =        0                           
*****
*
* SUBTHRESHOLD CURRENT PARAMETERS
*
+voff = '-0.20613+nhv_voff_diff_0'	
+nfactor = '0.5412+nhv_nfactor_diff_0'	
+up = 0.0
+ud = 0.0
+lp = 1.0
+tvfbsdoff = 0.0
+tvoff = '0+nhv_tvoff_diff_0'
+cit = -0.0008   
+cdsc = 0   
+cdscb = 0   
+cdscd = 0   
+eta0 = '0.032+nhv_eta0_diff_0'   
+etab = -0.01932   
+dsub = 0.504   
*NEW BSIM4 Parameters(Sub-threshold parameters)
+voffl = -4.2579486e-007   
+minv = 0   
*****
*
* ROUT PARAMETERS
*
+pclm = '1.2848+nhv_pclm_diff_0'   
+pdiblc1 = 0.21098   
+pdiblc2 = 0.0002   
+pdiblcb = -0.26831   
+drout = 0.36075   
+pscbe1 = 9.3731e+008   
+pscbe2 = 1.68e-006   
+pvag = 1.99   
+delta = 0.0246   
+alpha0 = 1.4467e-005   
+alpha1 = 0   
+beta0 = 36.96   
*NEW BSIM4 Parameters(ROUT Parameters)
+fprout = 10.125   
+pdits = '0+nhv_pdits_diff_0'   
+pditsl     =        0                           
+pditsd = '0+nhv_pditsd_diff_0'   
****
*NEW BSIM4 Parameters(GATE INDUCED DRAIN LEAKAGE MODEL PARAMTERS)
+agidl = '5.06e-011+nhv_agidl_diff_0'   
+bgidl = '1.058e009+nhv_bgidl_diff_0'   
+cgidl = '4000+nhv_cgidl_diff_0'   
+egidl = 0.8   
****
*NEW BSIM4 Parameters(Gate Leakage Current Parameters)
+aigbacc = 1   
+bigbacc = 0   
+cigbacc = 0   
+nigbacc = 1   
+aigbinv = 0.35   
+bigbinv = 0.03   
+cigbinv = 0.006   
+eigbinv = 1.1   
+nigbinv = 3   
+aigc = 0.43   
+bigc = 0.054   
+cigc = 0.075   
+nigc = 1   
+aigsd = 0.43   
+bigsd = 0.054   
+cigsd = 0.075   
+dlcig = 0   
+poxedge = 1   
+pigcd = 1   
+ntox = 1   
+toxref     =        1.16e-008                   
*****
*
* TEMPERATURE EFFECTS PARAMETERS
*
+kt1 = '-0.35073+nhv_kt1_diff_0'   
+kt2 = -0.019151   
+at = 49600   
+ute = -1.2986   
+ua1 = 3.0044e-009   
+ub1 = -3.7525e-018   
+uc1 = -5.9821e-011   
+kt1l = 0   
+prt = 0   
*NEW BSIM4 Parameters(HIGH SPEED RF MODEL PARAMETERS)
+xrcrg1 = 12   
+xrcrg2 = 1   
+rbpb       =        50                          
+rbpd       =        50                          
+rbps       =        50                          
+rbdb       =        50                          
+rbsb       =        50                          
+gbmin      =        1e-012                      
****
*NEW BSIM4 Parameters(FLICKER and THERMAL NOISE PARAMETERS)
+noia      =        2.6e+41                  
+noib      =        0.0                    
+noic      =         0.0                   
+em         =        4.1000000E+07                    
+af         =        1                           
+ef        =        0.89                           
+kf         =        0                           
+ntnoi      =        1                           
*****
*NEW BSIM4 Parameters(LAYOUT DEPENDENT PARASITIC MODEL PARAMETERS)
+dmcg       =        0                           
+dmcgt      =        0                           
+dmdg       =        0                           
+xgw        =        0                           
+xgl        =        0                           
+ngcon      =        1                           
****
*
*DIODE DC IV PARAMTERS
*
*NEW BSIM4 Parameters(DIODE DC IV parameters)
+diomod     =        1                           
+njs        =        1.0773                      
+jss        =        0.000375                    
+jsws       =        5.84e-11                    
+xtis       =        0.76                           
+bvs        =        12.636                      
+xjbvs      =        1                           
+ijthsrev   =        0.1                         
+ijthsfwd   =        0.1                         
*
* DIODE and FET CAPACITANCE PARAMETERS
*
+tpb        =        0.001344                    
+tpbsw      =        0.00099005                  
+tpbswg     =        0                           
+tcj        =        0.00067434                  
+tcjsw      =        0.0002493                   
+tcjswg     =        0                           
+cgdo       =        '3.0674e-010*nhv_overlap_mult'   
+cgso       =        '3.0674e-010*nhv_overlap_mult'   
+cgbo       =        0                           
+capmod     =        2                           
+xpart      =        0                           
+cgsl       =        '5e-011*nhv_overlap_mult'   
+cgdl       =        '5e-011*nhv_overlap_mult'   
+cf         =        0                           
+clc        =        1e-007                      
+cle        =        0.6                         
+dlc        =        '6.5995e-008+nhv_dlc_diff+nhv_dlc_rotweak'   
+dwc        =        '0+nhv_dwc_diff'            
+vfbcv      =        -1                          
+acde       =        0.4176                      
+moin       =        15                          
+noff       =        4                           
+voffcv     =        -0.4104                     
+ngate      =        1e+023                      
+lwc        =        0                           
+llc        =        0                           
+lwlc       =        0                           
+wlc        =        0                           
+wwc        =        0                           
+wwlc       =        0                           
*NEW BSIM4 Parameters(FET and DIODE capacitance parameters)
+ckappas    =        0.6                         
+cjs        =        '0.0008512*nhv_ajunction_mult'   
+mjs        =        0.295                       
+pbs        =        0.72468                     
+cjsws      =        '8.5204e-011*nhv_pjunction_mult'   
+mjsws      =        0.037586                    
+pbsws      =        0.29067                     
+cjswgs     =        '5.4e-011*nhv_pjunction_mult'   
+mjswgs     =        0.78692                     
+pbswgs     =        0.54958                     
* 
*STRESS PARAMETERS 
* 
+saref   = 1.81e-06
+sbref   = 1.81e-06
+wlod    = '0+nhv_wlod_diff'
+kvth0   = '0+nhv_kvth0_diff'
+lkvth0  = '0+nhv_lkvth0_diff'
+wkvth0  = '0+nhv_wkvth0_diff'
+pkvth0  = 0
+llodvth = 0
+wlodvth  = 1
+stk2    = 0
+lodk2   = 1
+lodeta0 = 1
+ku0     = '0+nhv_ku0_diff'
+lku0    = '0+nhv_lku0_diff'
+wku0    = '0+nhv_wku0_diff'
+pku0    = 0
+llodku0 = 0
+wlodku0  = 1
+kvsat   = '0+nhv_kvsat_diff'
+steta0  = 0
+tku0    = 0
******

.model nhv_mod.1 nmos
*
*DC IV MOS PARAMETERS
*
+lmin = 9.95e-07  lmax = 1.005e-06  wmin = 1.4995e-05  wmax = 1.5005e-05
+level      =        54                          
+tnom       =        30                          
+version    =        4.5                           
+toxm       =        1.16e-008                   
+xj = 1.5e-007   
+lln        =        1                           
+lwn        =        1                           
+wln        =        1                           
+wwn        =        1                           
+lint       =        '7.6507e-008+nhv_lint_diff'	   
+ll         =        0                           
+lw         =        0                           
+lwl        =        0                           
+wint       =        '2.1346e-008+nhv_wint_diff'	   
+wl         =        0                           
+ww         =        0                           
+wwl        =        0                           
+xl         =        0                           
+xw         =        0                           
+mobmod     =        0                           
+binunit    =        2                           
+dwg = -4.1292e-009   
+dwb = -1.6944e-009   
*NEW BSIM4 Parameters(Model Selectors)
+igcmod     =        0                           
+igbmod     =        0                           
+rgatemod   =        0                           
+rbodymod   =        1                           
+trnqsmod   =        0                           
+acnqsmod   =        0                           
+fnoimod    =        1                           
+tnoimod    =        1                           
+permod     =        1                           
+geomod     =        0                           
+rdsmod     =        0                           
+tempmod    =        0                           
*******
*NEW BSIM4 Parameters(4.4 Version)
+lintnoi    =        0.0                           
+vfbsdoff   =        0                           
+lambda     =        0                           
+vtl        =        0                           
+lc         =        5e-009                      
+xn         =        3                           
+rnoia      =        0.794
+rnoib      =        0.38
+tnoia     =         7.5e6
+tnoib     =        7.2e6
*NEW BSIM4 Parameters(Process Parameters)
+epsrox     =        3.9                         
+toxe       =        '1.16e-008*nhv_toxe_mult'	
+dtox       =        0                           
+ndep = 1.7e+017   
+nsd = 1e+020   
+rshg       =        0.1                         
****
+rsh        =        '1*nhv_rshn_mult'           
*
* THRESHOLD VOLTAGE PARAMETERS
*
+vth0 = '0.83003+nhv_vth0_diff_1'	   
+k1 = 0.88325   
+k2 = '-0.029179+nhv_k2_diff_1'   
+k3 = -0.884   
+dvt0 = 0   
+dvt1 = 0.53   
+dvt2 = -0.19251   
+dvt0w = 0.16   
+dvt1w = 6909100   
+dvt2w = -0.036016   
+w0 = 0   
+k3b = 0.43   
*NEW BSIM4 Parameters for Level 54
+phin = 0   
+lpe0 = 2.5e-008   
+lpeb = -2.182e-007   
+vbm = -3   
+dvtp0 = 0   
+dvtp1 = 0   
*
* MOBILITY PARAMETERS
*
+vsat = '97207+nhv_vsat_diff_1'   
+ua = '-1.498e-010+nhv_ua_diff_1'   
+ub = '2.0388e-018+nhv_ub_diff_1'   
+uc = 6.6204e-011   
+rdsw = '724.62+nhv_rdsw_diff_1'   
+prwb = 0.05626   
+prwg = 0.048   
+wr = 1   
+u0 = '0.043206+nhv_u0_diff_1'   
+a0 = '0.74065+nhv_a0_diff_1'   
+keta = '-0.027168+nhv_keta_diff_1'   
+a1 = 0   
+a2 = 0.65972622   
+ags = '0.16025+nhv_ags_diff_1'   
+b0 = '3.2933e-008+nhv_b0_diff_1'   
+b1 = '0+nhv_b1_diff_1'   
*NEW BSIM4 Parameters(Mobility Parameters)
+eu         =        1.67                        
+rdswmin    =        0                           
+rdw = 0   
+rdwmin     =        0                           
+rsw = 0   
+rswmin     =        0                           
*****
*
* SUBTHRESHOLD CURRENT PARAMETERS
*
+voff = '-0.20613+nhv_voff_diff_1'	
+nfactor = '0.5412+nhv_nfactor_diff_1'	
+up = 0.0
+ud = 0.0
+lp = 1.0
+tvfbsdoff = 0.0
+tvoff = '0+nhv_tvoff_diff_1'
+cit = -0.0008   
+cdsc = 0   
+cdscb = 0   
+cdscd = 0   
+eta0 = '0.032+nhv_eta0_diff_1'   
+etab = -0.01932   
+dsub = 0.504   
*NEW BSIM4 Parameters(Sub-threshold parameters)
+voffl = -4.2579486e-007   
+minv = 0   
*****
*
* ROUT PARAMETERS
*
+pclm = '0.33405+nhv_pclm_diff_1'   
+pdiblc1 = 0.21098   
+pdiblc2 = 0.0002   
+pdiblcb = -0.26831   
+drout = 0.36075   
+pscbe1 = 9.3731e+008   
+pscbe2 = 1.68e-006   
+pvag = 1.99   
+delta = 0.0246   
+alpha0 = 1.4467e-005   
+alpha1 = 0   
+beta0 = 32.525   
*NEW BSIM4 Parameters(ROUT Parameters)
+fprout = 10.125   
+pdits = '0+nhv_pdits_diff_1'   
+pditsl     =        0                           
+pditsd = '0+nhv_pditsd_diff_1'   
****
*NEW BSIM4 Parameters(GATE INDUCED DRAIN LEAKAGE MODEL PARAMTERS)
+agidl = '5.06e-011+nhv_agidl_diff_1'   
+bgidl = '1.058e009+nhv_bgidl_diff_1'   
+cgidl = '4000+nhv_cgidl_diff_1'   
+egidl = 0.8   
****
*NEW BSIM4 Parameters(Gate Leakage Current Parameters)
+aigbacc = 1   
+bigbacc = 0   
+cigbacc = 0   
+nigbacc = 1   
+aigbinv = 0.35   
+bigbinv = 0.03   
+cigbinv = 0.006   
+eigbinv = 1.1   
+nigbinv = 3   
+aigc = 0.43   
+bigc = 0.054   
+cigc = 0.075   
+nigc = 1   
+aigsd = 0.43   
+bigsd = 0.054   
+cigsd = 0.075   
+dlcig = 0   
+poxedge = 1   
+pigcd = 1   
+ntox = 1   
+toxref     =        1.16e-008                   
*****
*
* TEMPERATURE EFFECTS PARAMETERS
*
+kt1 = '-0.36273+nhv_kt1_diff_1'   
+kt2 = -0.019151   
+at = 24000   
+ute = -1.2986   
+ua1 = 3.0044e-009   
+ub1 = -3.4523e-018   
+uc1 = -5.9821e-011   
+kt1l = 0   
+prt = 0   
*NEW BSIM4 Parameters(HIGH SPEED RF MODEL PARAMETERS)
+xrcrg1 = 12   
+xrcrg2 = 1   
+rbpb       =        50                          
+rbpd       =        50                          
+rbps       =        50                          
+rbdb       =        50                          
+rbsb       =        50                          
+gbmin      =        1e-012                      
****
*NEW BSIM4 Parameters(FLICKER and THERMAL NOISE PARAMETERS)
+noia      =        2.6e+41                  
+noib      =        0.0                    
+noic      =         0.0                   
+em         =        4.1000000E+07                    
+af         =        1                           
+ef        =        0.89                           
+kf         =        0                           
+ntnoi      =        1                           
*****
*NEW BSIM4 Parameters(LAYOUT DEPENDENT PARASITIC MODEL PARAMETERS)
+dmcg       =        0                           
+dmcgt      =        0                           
+dmdg       =        0                           
+xgw        =        0                           
+xgl        =        0                           
+ngcon      =        1                           
****
*
*DIODE DC IV PARAMTERS
*
*NEW BSIM4 Parameters(DIODE DC IV parameters)
+diomod     =        1                           
+njs        =        1.0773                      
+jss        =        0.000375                    
+jsws       =        5.84e-11                    
+xtis       =        0.76                           
+bvs        =        12.636                      
+xjbvs      =        1                           
+ijthsrev   =        0.1                         
+ijthsfwd   =        0.1                         
*
* DIODE and FET CAPACITANCE PARAMETERS
*
+tpb        =        0.001344                    
+tpbsw      =        0.00099005                  
+tpbswg     =        0                           
+tcj        =        0.00067434                  
+tcjsw      =        0.0002493                   
+tcjswg     =        0                           
+cgdo       =        '3.0674e-010*nhv_overlap_mult'   
+cgso       =        '3.0674e-010*nhv_overlap_mult'   
+cgbo       =        0                           
+capmod     =        2                           
+xpart      =        0                           
+cgsl       =        '5e-011*nhv_overlap_mult'   
+cgdl       =        '5e-011*nhv_overlap_mult'   
+cf         =        0                           
+clc        =        1e-007                      
+cle        =        0.6                         
+dlc        =        '6.5995e-008+nhv_dlc_diff+nhv_dlc_rotweak'   
+dwc        =        '0+nhv_dwc_diff'            
+vfbcv      =        -1                          
+acde       =        0.4176                      
+moin       =        15                          
+noff       =        4                           
+voffcv     =        -0.4104                     
+ngate      =        1e+023                      
+lwc        =        0                           
+llc        =        0                           
+lwlc       =        0                           
+wlc        =        0                           
+wwc        =        0                           
+wwlc       =        0                           
*NEW BSIM4 Parameters(FET and DIODE capacitance parameters)
+ckappas    =        0.6                         
+cjs        =        '0.0008512*nhv_ajunction_mult'   
+mjs        =        0.295                       
+pbs        =        0.72468                     
+cjsws      =        '8.5204e-011*nhv_pjunction_mult'   
+mjsws      =        0.037586                    
+pbsws      =        0.29067                     
+cjswgs     =        '5.4e-011*nhv_pjunction_mult'   
+mjswgs     =        0.78692                     
+pbswgs     =        0.54958                     
* 
*STRESS PARAMETERS 
* 
+saref   = 2.81e-06
+sbref   = 2.81e-06
+wlod    = '0+nhv_wlod_diff'
+kvth0   = '0+nhv_kvth0_diff'
+lkvth0  = '0+nhv_lkvth0_diff'
+wkvth0  = '0+nhv_wkvth0_diff'
+pkvth0  = 0
+llodvth = 0
+wlodvth  = 1
+stk2    = 0
+lodk2   = 1
+lodeta0 = 1
+ku0     = '0+nhv_ku0_diff'
+lku0    = '0+nhv_lku0_diff'
+wku0    = '0+nhv_wku0_diff'
+pku0    = 0
+llodku0 = 0
+wlodku0  = 1
+kvsat   = '0+nhv_kvsat_diff'
+steta0  = 0
+tku0    = 0
******

.model nhv_mod.2 nmos
*
*DC IV MOS PARAMETERS
*
+lmin = 4.95e-07  lmax = 5.05e-07  wmin = 1.4995e-05  wmax = 1.5005e-05
+level      =        54                          
+tnom       =        30                          
+version    =        4.5                           
+toxm       =        1.16e-008                   
+xj = 1.5e-007   
+lln        =        1                           
+lwn        =        1                           
+wln        =        1                           
+wwn        =        1                           
+lint       =        '7.6507e-008+nhv_lint_diff'	   
+ll         =        0                           
+lw         =        0                           
+lwl        =        0                           
+wint       =        '2.1346e-008+nhv_wint_diff'	   
+wl         =        0                           
+ww         =        0                           
+wwl        =        0                           
+xl         =        0                           
+xw         =        0                           
+mobmod     =        0                           
+binunit    =        2                           
+dwg = -4.1292e-009   
+dwb = -1.6944e-009   
*NEW BSIM4 Parameters(Model Selectors)
+igcmod     =        0                           
+igbmod     =        0                           
+rgatemod   =        0                           
+rbodymod   =        1                           
+trnqsmod   =        0                           
+acnqsmod   =        0                           
+fnoimod    =        1                           
+tnoimod    =        1                           
+permod     =        1                           
+geomod     =        0                           
+rdsmod     =        0                           
+tempmod    =        0                           
*******
*NEW BSIM4 Parameters(4.4 Version)
+lintnoi    =        0.0                           
+vfbsdoff   =        0                           
+lambda     =        0                           
+vtl        =        0                           
+lc         =        5e-009                      
+xn         =        3                           
+rnoia      =        0.794
+rnoib      =        0.38
+tnoia     =         7.5e6
+tnoib     =        7.2e6
*NEW BSIM4 Parameters(Process Parameters)
+epsrox     =        3.9                         
+toxe       =        '1.16e-008*nhv_toxe_mult'	
+dtox       =        0                           
+ndep = 1.7e+017   
+nsd = 1e+020   
+rshg       =        0.1                         
****
+rsh        =        '1*nhv_rshn_mult'           
*
* THRESHOLD VOLTAGE PARAMETERS
*
+vth0 = '0.83003+nhv_vth0_diff_2'	   
+k1 = 0.88325   
+k2 = '-0.029179+nhv_k2_diff_2'   
+k3 = -0.884   
+dvt0 = 0   
+dvt1 = 0.53   
+dvt2 = -0.19251   
+dvt0w = 0.16   
+dvt1w = 6909100   
+dvt2w = -0.036016   
+w0 = 0   
+k3b = 0.43   
*NEW BSIM4 Parameters for Level 54
+phin = 0   
+lpe0 = 2.5e-008   
+lpeb = -2.182e-007   
+vbm = -3   
+dvtp0 = 0   
+dvtp1 = 0   
*
* MOBILITY PARAMETERS
*
+vsat = '105660+nhv_vsat_diff_2'   
+ua = '-1.498e-010+nhv_ua_diff_2'   
+ub = '2.1238e-018+nhv_ub_diff_2'   
+uc = 6.6204e-011   
+rdsw = '724.62+nhv_rdsw_diff_2'   
+prwb = 0.05626   
+prwg = 0.048   
+wr = 1   
+u0 = '0.044006+nhv_u0_diff_2'   
+a0 = '1.1222+nhv_a0_diff_2'   
+keta = '-0.01066+nhv_keta_diff_2'   
+a1 = 0   
+a2 = 0.65972622   
+ags = '0.16025+nhv_ags_diff_2'   
+b0 = '3.2933e-008+nhv_b0_diff_2'   
+b1 = '0+nhv_b1_diff_2'   
*NEW BSIM4 Parameters(Mobility Parameters)
+eu         =        1.67                        
+rdswmin    =        0                           
+rdw = 0   
+rdwmin     =        0                           
+rsw = 0   
+rswmin     =        0                           
*****
*
* SUBTHRESHOLD CURRENT PARAMETERS
*
+voff = '-0.20613+nhv_voff_diff_2'	
+nfactor = '0.5412+nhv_nfactor_diff_2'	
+up = 0.0
+ud = 0.0
+lp = 1.0
+tvfbsdoff = 0.0
+tvoff = '0+nhv_tvoff_diff_2'
+cit = -0.0008   
+cdsc = 0   
+cdscb = 0   
+cdscd = 0   
+eta0 = '0.032+nhv_eta0_diff_2'   
+etab = -0.01932   
+dsub = 0.504   
*NEW BSIM4 Parameters(Sub-threshold parameters)
+voffl = -4.2579486e-007   
+minv = 0   
*****
*
* ROUT PARAMETERS
*
+pclm = '1.0792+nhv_pclm_diff_2'   
+pdiblc1 = 0.21098   
+pdiblc2 = 0.0002   
+pdiblcb = -0.26831   
+drout = 0.36075   
+pscbe1 = 9.3731e+008   
+pscbe2 = 1.68e-006   
+pvag = 1.99   
+delta = 0.0246   
+alpha0 = 1.4467e-005   
+alpha1 = 0   
+beta0 = 36.96   
*NEW BSIM4 Parameters(ROUT Parameters)
+fprout = 10.125   
+pdits = '0+nhv_pdits_diff_2'   
+pditsl     =        0                           
+pditsd = '0+nhv_pditsd_diff_2'   
****
*NEW BSIM4 Parameters(GATE INDUCED DRAIN LEAKAGE MODEL PARAMTERS)
+agidl = '5.06e-011+nhv_agidl_diff_2'   
+bgidl = '1.058e009+nhv_bgidl_diff_2'   
+cgidl = '4000+nhv_cgidl_diff_2'   
+egidl = 0.8   
****
*NEW BSIM4 Parameters(Gate Leakage Current Parameters)
+aigbacc = 1   
+bigbacc = 0   
+cigbacc = 0   
+nigbacc = 1   
+aigbinv = 0.35   
+bigbinv = 0.03   
+cigbinv = 0.006   
+eigbinv = 1.1   
+nigbinv = 3   
+aigc = 0.43   
+bigc = 0.054   
+cigc = 0.075   
+nigc = 1   
+aigsd = 0.43   
+bigsd = 0.054   
+cigsd = 0.075   
+dlcig = 0   
+poxedge = 1   
+pigcd = 1   
+ntox = 1   
+toxref     =        1.16e-008                   
*****
*
* TEMPERATURE EFFECTS PARAMETERS
*
+kt1 = '-0.35073+nhv_kt1_diff_2'   
+kt2 = -0.019151   
+at = 41664   
+ute = -1.2986   
+ua1 = 3.0044e-009   
+ub1 = -3.7525e-018   
+uc1 = -5.9821e-011   
+kt1l = 0   
+prt = 0   
*NEW BSIM4 Parameters(HIGH SPEED RF MODEL PARAMETERS)
+xrcrg1 = 12   
+xrcrg2 = 1   
+rbpb       =        50                          
+rbpd       =        50                          
+rbps       =        50                          
+rbdb       =        50                          
+rbsb       =        50                          
+gbmin      =        1e-012                      
****
*NEW BSIM4 Parameters(FLICKER and THERMAL NOISE PARAMETERS)
+noia      =        2.6e+41                  
+noib      =        0.0                    
+noic      =         0.0                   
+em         =        4.1000000E+07                    
+af         =        1                           
+ef        =        0.89                           
+kf         =        0                           
+ntnoi      =        1                           
*****
*NEW BSIM4 Parameters(LAYOUT DEPENDENT PARASITIC MODEL PARAMETERS)
+dmcg       =        0                           
+dmcgt      =        0                           
+dmdg       =        0                           
+xgw        =        0                           
+xgl        =        0                           
+ngcon      =        1                           
****
*
*DIODE DC IV PARAMTERS
*
*NEW BSIM4 Parameters(DIODE DC IV parameters)
+diomod     =        1                           
+njs        =        1.0773                      
+jss        =        0.000375                    
+jsws       =        5.84e-11                    
+xtis       =        0.76                           
+bvs        =        12.636                      
+xjbvs      =        1                           
+ijthsrev   =        0.1                         
+ijthsfwd   =        0.1                         
*
* DIODE and FET CAPACITANCE PARAMETERS
*
+tpb        =        0.001344                    
+tpbsw      =        0.00099005                  
+tpbswg     =        0                           
+tcj        =        0.00067434                  
+tcjsw      =        0.0002493                   
+tcjswg     =        0                           
+cgdo       =        '3.0674e-010*nhv_overlap_mult'   
+cgso       =        '3.0674e-010*nhv_overlap_mult'   
+cgbo       =        0                           
+capmod     =        2                           
+xpart      =        0                           
+cgsl       =        '5e-011*nhv_overlap_mult'   
+cgdl       =        '5e-011*nhv_overlap_mult'   
+cf         =        0                           
+clc        =        1e-007                      
+cle        =        0.6                         
+dlc        =        '6.5995e-008+nhv_dlc_diff+nhv_dlc_rotweak'   
+dwc        =        '0+nhv_dwc_diff'            
+vfbcv      =        -1                          
+acde       =        0.4176                      
+moin       =        15                          
+noff       =        4                           
+voffcv     =        -0.4104                     
+ngate      =        1e+023                      
+lwc        =        0                           
+llc        =        0                           
+lwlc       =        0                           
+wlc        =        0                           
+wwc        =        0                           
+wwlc       =        0                           
*NEW BSIM4 Parameters(FET and DIODE capacitance parameters)
+ckappas    =        0.6                         
+cjs        =        '0.0008512*nhv_ajunction_mult'   
+mjs        =        0.295                       
+pbs        =        0.72468                     
+cjsws      =        '8.5204e-011*nhv_pjunction_mult'   
+mjsws      =        0.037586                    
+pbsws      =        0.29067                     
+cjswgs     =        '5.4e-011*nhv_pjunction_mult'   
+mjswgs     =        0.78692                     
+pbswgs     =        0.54958                     
* 
*STRESS PARAMETERS 
* 
+saref   = 1.81e-06
+sbref   = 1.81e-06
+wlod    = '0+nhv_wlod_diff'
+kvth0   = '0+nhv_kvth0_diff'