* BSIMTran Version 0.1.24, Created on 4-26-2002
* Username: hai
* Command Line: /home/hai/config/cydir/bin/lnx86/bsimtran pmos_bsim4.rf pmos -p -nplowvt plowvt_modelnamechanged.pm3 overlap.pm PDIV1.PMD pdcv1.pm plowvt_bsimtranoutput.pm3 
* Working Directory: /home/hai/models/s8/s8tee/models.3.1/beta10/plowvt/discrete/final_models/combined
* Time: Thu Nov  8 14:29:34 2007
* Rule File:  pmos_bsim4.rf
* Output File:  plowvt_bsimtranoutput.pm3
* Input Files:
* (1) plowvt_modelnamechanged.pm3
* (2) overlap.pm
* (3) PDIV1.PMD
* (4) pdcv1.pm
*copyright, Cypress Semiconductor, 2002
*BSIM3.V3 PMOS Model

.subckt plowvt d g s b l=100.0u w=100.0u ad=0 as=0 pd=0 ps=0 nrd=1 nrs=1 rdc=0.0 rsc=0.0 m=1 dtemp=0 nf=1 geo=0.0 delvto=0.0 sa=0.0 sb=0.0 sd=0.0
.model plowvt_mod.0 pmos
*
*DC IV MOS PARAMETERS
*
+lmin = 9.95e-07  lmax = 1.005e-06  wmin = 9.95e-07  wmax = 1.005e-06
+level      =        54                          
+tnom       =        30                          
+version    =        4.5                       
+toxm       =        4.23e-009                   
+xj = 1.5e-007   
+lln        =        1                           
+lwn        =        1                           
+wln        =        1                           
+wwn        =        1                           
+lint       =        '2.8e-009+plowvt_lint_diff'	   
+ll         =        0                           
+lw         =        0                           
+lwl        =        0                           
+wint       =        '7.476e-009+plowvt_wint_diff'	   
+wl         =        0                           
+ww         =        0                           
+wwl        =        0                           
+xl         =        0                           
+xw         =        0                           
+mobmod     =        0                           
+binunit    =        2                           
+dwg = -7.916e-009   
+dwb = 0   
*NEW BSIM4 Parameters(Model Selectors)
+igcmod     =        0                           
+igbmod     =        0                           
+rgatemod   =        0                           
+rbodymod   =        1                           
+trnqsmod   =        0                           
+acnqsmod   =        0                           
+fnoimod    =        1                           
+tnoimod    =        1                           
+permod     =        1                           
+geomod     =        0                           
+rdsmod     =        0                           
+tempmod    =        0                           
*******
*NEW BSIM4 Parameters(4.4 Version)
+lintnoi    =        0.0                           
+vfbsdoff   =        0                           
+lambda     =        0                           
+vtl        =        0                           
+lc         =        5e-009                      
+xn         =        3                           
+rnoia      =        0.69
+rnoib      =        0.34
+tnoia      =        25e6
+tnoib      =        0.0e6
*NEW BSIM4 Parameters(Process Parameters)
+epsrox     =        3.9                         
+toxe       =        '4.23e-009*plowvt_toxe_mult'	
+dtox       =        0                           
+ndep = 1.7e+017   
+nsd = 1e+020   
+rshg       =        0.1                         
****
+rsh        =        '1*plowvt_rshp_mult'        
*
* THRESHOLD VOLTAGE PARAMETERS
*
+vth0 = '-0.32+plowvt_vth0_diff_0'	
+k1 = 0.64774   
+k2 = '-0.041573+plowvt_k2_diff_0'   
+k3 = 3.39   
+dvt0 = 2.4422   
+dvt1 = 0.16136   
+dvt2 = 0.026237   
+dvt0w = 0.5   
+dvt1w = 1928100   
+dvt2w = -0.032   
+w0 = 1e-008   
+k3b = 1   
*NEW BSIM4 Parameters for Level 54
+phin = 0   
+lpe0 = 0   
+lpeb = 0   
+vbm = -3   
+dvtp0 = 0   
+dvtp1 = 0   
*
* MOBILITY PARAMETERS
*
+vsat = '123760+plowvt_vsat_diff_0'   
+ua = '-2.8863e-009+plowvt_ua_diff_0'   
+ub = '2.9625e-018+plowvt_ub_diff_0'   
+uc = 6.4586e-011   
+rdsw = '484.7+plowvt_rdsw_diff_0'   
+prwb = 0.1   
+prwg = 0.052   
+wr = 1   
+u0 = '0.00265+plowvt_u0_diff_0'   
+a0 = '1.3255+plowvt_a0_diff_0'   
+keta = '-0.01258+plowvt_keta_diff_0'   
+a1 = 0   
+a2 = 0.46703705   
+ags = '0.25696+plowvt_ags_diff_0'   
+b0 = '0+plowvt_b0_diff_0'   
+b1 = '2.1073e-024+plowvt_b1_diff_0'   
*NEW BSIM4 Parameters(Mobility Parameters)
+eu         =        1.67                        
+rdswmin    =        0                           
+rdw = 0   
+rdwmin     =        0                           
+rsw = 0   
+rswmin     =        0                           
*****
*
* SUBTHRESHOLD CURRENT PARAMETERS
*
+voff = '-0.1819+plowvt_voff_diff_0'	
+nfactor = '2.5373+plowvt_nfactor_diff_0'	   
+tvoff       = '0+plowvt_tvoff_diff_0'
+tvfbsdoff   = 0
+up         =        0                           
+ud         =        0                           
+lp         =        1                           
+cit = -6.393105e-011   
+cdsc = 2.8125e-007   
+cdscb = 0.0001   
+cdscd = 1e-010   
+eta0 = '0.2+plowvt_eta0_diff_0'   
+etab = -0.00025   
+dsub = 1   
*NEW BSIM4 Parameters(Sub-threshold parameters)
+voffl = 0   
+minv = 0   
*****
*
* ROUT PARAMETERS
*
+pclm = '0.030097+plowvt_pclm_diff_0'   
+pdiblc1 = 0   
+pdiblc2 = 0.017768   
+pdiblcb = -0.025   
+drout = 0.43496   
+pscbe1 = 8e+008   
+pscbe2 = 8.6797e-009   
+pvag = 0   
+delta = 0.046757   
+alpha0 = 5.0449517e-013   
+alpha1 = -4.0583656e-018   
+beta0 = 6.2016506   
*NEW BSIM4 Parameters(ROUT Parameters)
+fprout = 0   
+pdits = '0+plowvt_pdits_diff_0'   
+pditsl     =        0                           
+pditsd = '0+plowvt_pditsd_diff_0'   
****
*NEW BSIM4 Parameters(GATE INDUCED DRAIN LEAKAGE MODEL PARAMTERS)
+agidl = '0+plowvt_agidl_diff_0'   
+bgidl = '2.3e009+plowvt_bgidl_diff_0'   
+cgidl = '0.5+plowvt_cgidl_diff_0'   
+egidl = 0.8   
****
*NEW BSIM4 Parameters(Gate Leakage Current Parameters)
+aigbacc = 0.43   
+bigbacc = 0.054   
+cigbacc = 0.075   
+nigbacc = 1   
+aigbinv = 0.35   
+bigbinv = 0.03   
+cigbinv = 0.006   
+eigbinv = 1.1   
+nigbinv = 3   
+aigc = 0.43   
+bigc = 0.054   
+cigc = 0.075   
+nigc = 1   
+aigsd = 0.43   
+bigsd = 0.054   
+cigsd = 0.075   
+dlcig = 0   
+poxedge = 1   
+pigcd = 1   
+ntox = 1   
+toxref     =        4.23e-009                   
*****
*
* TEMPERATURE EFFECTS PARAMETERS
*
+kt1 = '-0.61727+plowvt_kt1_diff_0'   
+kt2 = -0.035779   
+at = 164410   
+ute = -0.15885   
+ua1 = 6.4145e-010   
+ub1 = -1.094e-020   
+uc1 = -9.961e-012   
+kt1l = 0   
+prt = 0   
*NEW BSIM4 Parameters(HIGH SPEED RF MODEL PARAMETERS)
+xrcrg1 = 12   
+xrcrg2 = 1   
+rbpb       =        50                          
+rbpd       =        50                          
+rbps       =        50                          
+rbdb       =        50                          
+rbsb       =        50                          
+gbmin      =        1e-012                      
****
*NEW BSIM4 Parameters(FLICKER and THERMAL NOISE PARAMETERS)
+noia      =        3.0e+41
+noib      =        0.0
+noic      =        0.0
+em         =       4.1000000e+07
+af         =        1
+ef         =        0.88
+kf         =        0
+ntnoi      =        1
*****
*NEW BSIM4 Parameters(LAYOUT DEPENDENT PARASITIC MODEL PARAMETERS)
+dmcg       =        0                           
+dmcgt      =        0                           
+dmdg       =        0                           
+xgw        =        0                           
+xgl        =        0                           
+ngcon      =        1                           
****
*
*DIODE DC IV PARAMTERS
*
*NEW BSIM4 Parameters(DIODE DC IV parameters)
+diomod     =        1                           
+njs        =        1.3632                      
+jss        =        2.1483e-05                  
+jsws       =        1.4472e-10                  
+xtis       =        5.2                         
+bvs        =        12.69                       
+xjbvs      =        1                           
+ijthsrev   =        0.1                         
+ijthsfwd   =        0.1                         
*
* DIODE and FET CAPACITANCE PARAMETERS
*
+tpb        =        0.001671                    
+tpbsw      =        0.001246                    
+tpbswg     =        0                           
+tcj        =        0.0012407                   
+tcjsw      =        0.00037357                  
+tcjswg     =        2e-012                      
+cgdo       =        '1e-010*plowvt_overlap_mult'   
+cgso       =        '1e-010*plowvt_overlap_mult'   
+cgbo       =        1e-013                      
+capmod     =        2                           
+xpart      =        0                           
+cgsl       =        '0*plowvt_overlap_mult'     
+cgdl       =        '0*plowvt_overlap_mult'     
+cf         =        0                           
+clc        =        7e-008                      
+cle        =        0.492                       
+dlc        =        '0+plowvt_dlc_diff+plowvt_dlc_rotweak'   
+dwc        =        '0+plowvt_dwc_diff'         
+vfbcv      =        -1                          
+acde       =        0.44                        
+moin       =        8.7                         
+noff       =        2.6123                      
+voffcv     =        0.112                       
+ngate      =        1e+023                      
+lwc        =        0                           
+llc        =        0                           
+lwlc       =        0                           
+wlc        =        0                           
+wwc        =        0                           
+wwlc       =        0                           
*NEW BSIM4 Parameters(FET and DIODE capacitance parameters)
+ckappas    =        0.6                         
+cjs        =        '0.00076823*plowvt_ajunction_mult'   
+mjs        =        0.3362                      
+pbs        =        0.6587                      
+cjsws      =        '9.152e-011*plowvt_pjunction_mult'   
+mjsws      =        0.2659                      
+pbsws      =        0.7418                      
+cjswgs     =        '2.3894e-010*plowvt_pjunction_mult'   
+mjswgs     =        0.9274                      
+pbswgs     =        1.4338                      
* 
*STRESS PARAMETERS 
* 
+saref   = 2.74e-06
+sbref   = 2.74e-06
+wlod    = 0.0e-6
+kvth0   = 1.76e-08
+lkvth0  = 0
+wkvth0  = 0.73e-6
+pkvth0  = 0
+llodvth = 0
+wlodvth = 1
+stk2    = 0
+lodk2   = 1
+lodeta0 = 1
+ku0     = 5.9e-08
+lku0    = 0
+wku0    = 0
+pku0    = 0
+llodku0 = 0
+wlodku0 = 1
+kvsat   = 0.0e-6
+steta0  = 0
+tku0    = 0
*
*
*****


.model plowvt_mod.1 pmos
*
*DC IV MOS PARAMETERS
*
+lmin = 1.995e-06  lmax = 2.005e-06  wmin = 9.95e-07  wmax = 1.005e-06
+level      =        54                          
+tnom       =        30                          
+version    =        4.5                       
+toxm       =        4.23e-009                   
+xj = 1.5e-007   
+lln        =        1                           
+lwn        =        1                           
+wln        =        1                           
+wwn        =        1                           
+lint       =        '2.8e-009+plowvt_lint_diff'	   
+ll         =        0                           
+lw         =        0                           
+lwl        =        0                           
+wint       =        '7.476e-009+plowvt_wint_diff'	   
+wl         =        0                           
+ww         =        0                           
+wwl        =        0                           
+xl         =        0                           
+xw         =        0                           
+mobmod     =        0                           
+binunit    =        2                           
+dwg = -7.916e-009   
+dwb = 0   
*NEW BSIM4 Parameters(Model Selectors)
+igcmod     =        0                           
+igbmod     =        0                           
+rgatemod   =        0                           
+rbodymod   =        1                           
+trnqsmod   =        0                           
+acnqsmod   =        0                           
+fnoimod    =        1                           
+tnoimod    =        1                           
+permod     =        1                           
+geomod     =        0                           
+rdsmod     =        0                           
+tempmod    =        0                           
*******
*NEW BSIM4 Parameters(4.4 Version)
+lintnoi    =        0.0                           
+vfbsdoff   =        0                           
+lambda     =        0                           
+vtl        =        0                           
+lc         =        5e-009                      
+xn         =        3                           
+rnoia      =        0.69
+rnoib      =        0.34
+tnoia      =        25e6
+tnoib      =        0.0e6
*NEW BSIM4 Parameters(Process Parameters)
+epsrox     =        3.9                         
+toxe       =        '4.23e-009*plowvt_toxe_mult'	
+dtox       =        0                           
+ndep = 1.7e+017   
+nsd = 1e+020   
+rshg       =        0.1                         
****
+rsh        =        '1*plowvt_rshp_mult'        
*
* THRESHOLD VOLTAGE PARAMETERS
*
+vth0 = '-0.38+plowvt_vth0_diff_1'	
+k1 = 0.64774   
+k2 = '-0.041573+plowvt_k2_diff_1'   
+k3 = 3.39   
+dvt0 = 2.4422   
+dvt1 = 0.16136   
+dvt2 = 0.026237   
+dvt0w = 0.5   
+dvt1w = 1928100   
+dvt2w = -0.032   
+w0 = 1e-008   
+k3b = 1   
*NEW BSIM4 Parameters for Level 54
+phin = 0   
+lpe0 = 0   
+lpeb = 0   
+vbm = -3   
+dvtp0 = 0   
+dvtp1 = 0   
*
* MOBILITY PARAMETERS
*
+vsat = '123760+plowvt_vsat_diff_1'   
+ua = '-2.8863e-009+plowvt_ua_diff_1'   
+ub = '2.9625e-018+plowvt_ub_diff_1'   
+uc = 6.4586e-011   
+rdsw = '484.7+plowvt_rdsw_diff_1'   
+prwb = 0.1   
+prwg = 0.052   
+wr = 1   
+u0 = '0.00265+plowvt_u0_diff_1'   
+a0 = '1.3662+plowvt_a0_diff_1'   
+keta = '-0.01258+plowvt_keta_diff_1'   
+a1 = 0   
+a2 = 0.46703705   
+ags = '0.25696+plowvt_ags_diff_1'   
+b0 = '0+plowvt_b0_diff_1'   
+b1 = '2.1073e-024+plowvt_b1_diff_1'   
*NEW BSIM4 Parameters(Mobility Parameters)
+eu         =        1.67                        
+rdswmin    =        0                           
+rdw = 0   
+rdwmin     =        0                           
+rsw = 0   
+rswmin     =        0                           
*****
*
* SUBTHRESHOLD CURRENT PARAMETERS
*
+voff = '-0.1819+plowvt_voff_diff_1'	
+nfactor = '2.5373+plowvt_nfactor_diff_1'	   
+tvoff       = '0+plowvt_tvoff_diff_1'
+tvfbsdoff   = 0
+up         =        0                           
+ud         =        0                           
+lp         =        1                           
+cit = -6.393105e-011   
+cdsc = 2.8125e-007   
+cdscb = 0.0001   
+cdscd = 1e-010   
+eta0 = '0.2+plowvt_eta0_diff_1'   
+etab = -0.00025   
+dsub = 1   
*NEW BSIM4 Parameters(Sub-threshold parameters)
+voffl = 0   
+minv = 0   
*****
*
* ROUT PARAMETERS
*
+pclm = '0.030097+plowvt_pclm_diff_1'   
+pdiblc1 = 0   
+pdiblc2 = 0.0091588   
+pdiblcb = -0.025   
+drout = 0.43496   
+pscbe1 = 8e+008   
+pscbe2 = 8.6797e-009   
+pvag = 0   
+delta = 0.024056   
+alpha0 = 5.0449517e-013   
+alpha1 = -4.0583656e-018   
+beta0 = 6.2016506   
*NEW BSIM4 Parameters(ROUT Parameters)
+fprout = 0   
+pdits = '0+plowvt_pdits_diff_1'   
+pditsl     =        0                           
+pditsd = '0+plowvt_pditsd_diff_1'   
****
*NEW BSIM4 Parameters(GATE INDUCED DRAIN LEAKAGE MODEL PARAMTERS)
+agidl = '0+plowvt_agidl_diff_1'   
+bgidl = '2.3e009+plowvt_bgidl_diff_1'   
+cgidl = '0.5+plowvt_cgidl_diff_1'   
+egidl = 0.8   
****
*NEW BSIM4 Parameters(Gate Leakage Current Parameters)
+aigbacc = 0.43   
+bigbacc = 0.054   
+cigbacc = 0.075   
+nigbacc = 1   
+aigbinv = 0.35   
+bigbinv = 0.03   
+cigbinv = 0.006   
+eigbinv = 1.1   
+nigbinv = 3   
+aigc = 0.43   
+bigc = 0.054   
+cigc = 0.075   
+nigc = 1   
+aigsd = 0.43   
+bigsd = 0.054   
+cigsd = 0.075   
+dlcig = 0   
+poxedge = 1   
+pigcd = 1   
+ntox = 1   
+toxref     =        4.23e-009                   
*****
*
* TEMPERATURE EFFECTS PARAMETERS
*
+kt1 = '-0.59135+plowvt_kt1_diff_1'   
+kt2 = -0.055045   
+at = 240100   
+ute = -0.15426   
+ua1 = 6.9609e-010   
+ub1 = -1.2188e-019   
+uc1 = -9.961e-012   
+kt1l = 0   
+prt = 0   
*NEW BSIM4 Parameters(HIGH SPEED RF MODEL PARAMETERS)
+xrcrg1 = 12   
+xrcrg2 = 1   
+rbpb       =        50                          
+rbpd       =        50                          
+rbps       =        50                          
+rbdb       =        50                          
+rbsb       =        50                          
+gbmin      =        1e-012                      
****
*NEW BSIM4 Parameters(FLICKER and THERMAL NOISE PARAMETERS)
+noia      =        3.0e+41
+noib      =        0.0
+noic      =        0.0
+em         =       4.1000000e+07
+af         =        1
+ef         =        0.88
+kf         =        0
+ntnoi      =        1
*****
*NEW BSIM4 Parameters(LAYOUT DEPENDENT PARASITIC MODEL PARAMETERS)
+dmcg       =        0                           
+dmcgt      =        0                           
+dmdg       =        0                           
+xgw        =        0                           
+xgl        =        0                           
+ngcon      =        1                           
****
*
*DIODE DC IV PARAMTERS
*
*NEW BSIM4 Parameters(DIODE DC IV parameters)
+diomod     =        1                           
+njs        =        1.3632                      
+jss        =        2.1483e-05                  
+jsws       =        1.4472e-10                  
+xtis       =        5.2                         
+bvs        =        12.69                       
+xjbvs      =        1                           
+ijthsrev   =        0.1                         
+ijthsfwd   =        0.1                         
*
* DIODE and FET CAPACITANCE PARAMETERS
*
+tpb        =        0.001671                    
+tpbsw      =        0.001246                    
+tpbswg     =        0                           
+tcj        =        0.0012407                   
+tcjsw      =        0.00037357                  
+tcjswg     =        2e-012                      
+cgdo       =        '1e-010*plowvt_overlap_mult'   
+cgso       =        '1e-010*plowvt_overlap_mult'   
+cgbo       =        1e-013                      
+capmod     =        2                           
+xpart      =        0                           
+cgsl       =        '0*plowvt_overlap_mult'     
+cgdl       =        '0*plowvt_overlap_mult'     
+cf         =        0                           
+clc        =        7e-008                      
+cle        =        0.492                       
+dlc        =        '0+plowvt_dlc_diff+plowvt_dlc_rotweak'   
+dwc        =        '0+plowvt_dwc_diff'         
+vfbcv      =        -1                          
+acde       =        0.44                        
+moin       =        8.7                         
+noff       =        2.6123                      
+voffcv     =        0.112                       
+ngate      =        1e+023                      
+lwc        =        0                           
+llc        =        0                           
+lwlc       =        0                           
+wlc        =        0                           
+wwc        =        0                           
+wwlc       =        0                           
*NEW BSIM4 Parameters(FET and DIODE capacitance parameters)
+ckappas    =        0.6                         
+cjs        =        '0.00076823*plowvt_ajunction_mult'   
+mjs        =        0.3362                      
+pbs        =        0.6587                      
+cjsws      =        '9.152e-011*plowvt_pjunction_mult'   
+mjsws      =        0.2659                      
+pbsws      =        0.7418                      
+cjswgs     =        '2.3894e-010*plowvt_pjunction_mult'   
+mjswgs     =        0.9274                      
+pbswgs     =        1.4338                      
* 
*STRESS PARAMETERS 
* 
+saref   = 3.0e-06
+sbref   = 3.0e-06
+wlod    = 0.0e-6
+kvth0   = 1.76e-08
+lkvth0  = 0
+wkvth0  = 0.73e-6
+pkvth0  = 0
+llodvth = 0
+wlodvth = 1
+stk2    = 0
+lodk2   = 1
+lodeta0 = 1
+ku0     = 5.9e-08
+lku0    = 0
+wku0    = 0
+pku0    = 0
+llodku0 = 0
+wlodku0 = 1
+kvsat   = 0.0e-6
+steta0  = 0
+tku0    = 0
*
*
*****


.model plowvt_mod.2 pmos
*
*DC IV MOS PARAMETERS
*
+lmin = 3.995e-06  lmax = 4.005e-06  wmin = 9.95e-07  wmax = 1.005e-06
+level      =        54                          
+tnom       =        30                          
+version    =        4.5                       
+toxm       =        4.23e-009                   
+xj = 1.5e-007   
+lln        =        1                           
+lwn        =        1                           
+wln        =        1                           
+wwn        =        1                           
+lint       =        '2.8e-009+plowvt_lint_diff'	   
+ll         =        0                           
+lw         =        0                           
+lwl        =        0                           
+wint       =        '7.476e-009+plowvt_wint_diff'	   
+wl         =        0                           
+ww         =        0                           
+wwl        =        0                           
+xl         =        0                           
+xw         =        0                           
+mobmod     =        0                           
+binunit    =        2                           
+dwg = -7.916e-009   
+dwb = 0   
*NEW BSIM4 Parameters(Model Selectors)
+igcmod     =        0                           
+igbmod     =        0                           
+rgatemod   =        0                           
+rbodymod   =        1                           
+trnqsmod   =        0                           
+acnqsmod   =        0                           
+fnoimod    =        1                           
+tnoimod    =        1                           
+permod     =        1                           
+geomod     =        0                           
+rdsmod     =        0                           
+tempmod    =        0                           
*******
*NEW BSIM4 Parameters(4.4 Version)
+lintnoi    =        0.0                           
+vfbsdoff   =        0                           
+lambda     =        0                           
+vtl        =        0                           
+lc         =        5e-009                      
+xn         =        3                           
+rnoia      =        0.69
+rnoib      =        0.34
+tnoia      =        25e6
+tnoib      =        0.0e6
*NEW BSIM4 Parameters(Process Parameters)
+epsrox     =        3.9                         
+toxe       =        '4.23e-009*plowvt_toxe_mult'	
+dtox       =        0                           
+ndep = 1.7e+017   
+nsd = 1e+020   
+rshg       =        0.1                         
****
+rsh        =        '1*plowvt_rshp_mult'        
*
* THRESHOLD VOLTAGE PARAMETERS
*
+vth0 = '-0.38+plowvt_vth0_diff_2'	
+k1 = 0.64774   
+k2 = '-0.041573+plowvt_k2_diff_2'   
+k3 = 3.39   
+dvt0 = 2.4422   
+dvt1 = 0.16136   
+dvt2 = 0.026237   
+dvt0w = 0.5   
+dvt1w = 1928100   
+dvt2w = -0.032   
+w0 = 1e-008   
+k3b = 1   
*NEW BSIM4 Parameters for Level 54
+phin = 0   
+lpe0 = 0   
+lpeb = 0   
+vbm = -3   
+dvtp0 = 0   
+dvtp1 = 0   
*
* MOBILITY PARAMETERS
*
+vsat = '123760+plowvt_vsat_diff_2'   
+ua = '-2.9363e-009+plowvt_ua_diff_2'   
+ub = '3.023e-018+plowvt_ub_diff_2'   
+uc = 6.4586e-011   
+rdsw = '484.7+plowvt_rdsw_diff_2'   
+prwb = 0.1   
+prwg = 0.052   
+wr = 1   
+u0 = '0.00264+plowvt_u0_diff_2'   
+a0 = '1.4534+plowvt_a0_diff_2'   
+keta = '-0.01258+plowvt_keta_diff_2'   
+a1 = 0   
+a2 = 0.46703705   
+ags = '0.25696+plowvt_ags_diff_2'   
+b0 = '0+plowvt_b0_diff_2'   
+b1 = '2.1073e-024+plowvt_b1_diff_2'   
*NEW BSIM4 Parameters(Mobility Parameters)
+eu         =        1.67                        
+rdswmin    =        0                           
+rdw = 0   
+rdwmin     =        0                           
+rsw = 0   
+rswmin     =        0                           
*****
*
* SUBTHRESHOLD CURRENT PARAMETERS
*
+voff = '-0.1819+plowvt_voff_diff_2'	
+nfactor = '2.5373+plowvt_nfactor_diff_2'	   
+tvoff       = '0+plowvt_tvoff_diff_2'
+tvfbsdoff   = 0
+up         =        0                           
+ud         =        0                           
+lp         =        1                           
+cit = -6.393105e-011   
+cdsc = 2.8125e-007   
+cdscb = 0.0001   
+cdscd = 1e-010   
+eta0 = '0.2+plowvt_eta0_diff_2'   
+etab = -0.00025   
+dsub = 1   
*NEW BSIM4 Parameters(Sub-threshold parameters)
+voffl = 0   
+minv = 0   
*****
*
* ROUT PARAMETERS
*
+pclm = '0.030097+plowvt_pclm_diff_2'   
+pdiblc1 = 0   
+pdiblc2 = 0.0045794   
+pdiblcb = -0.025   
+drout = 0.43496   
+pscbe1 = 8e+008   
+pscbe2 = 8.6797e-009   
+pvag = 0   
+delta = 0.022652   
+alpha0 = 5.0449517e-013   
+alpha1 = -4.0583656e-018   
+beta0 = 6.2016506   
*NEW BSIM4 Parameters(ROUT Parameters)
+fprout = 0   
+pdits = '0+plowvt_pdits_diff_2'   
+pditsl     =        0                           
+pditsd = '0+plowvt_pditsd_diff_2'   
****
*NEW BSIM4 Parameters(GATE INDUCED DRAIN LEAKAGE MODEL PARAMTERS)
+agidl = '0+plowvt_agidl_diff_2'   
+bgidl = '2.3e009+plowvt_bgidl_diff_2'   
+cgidl = '0.5+plowvt_cgidl_diff_2'   
+egidl = 0.8   
****
*NEW BSIM4 Parameters(Gate Leakage Current Parameters)
+aigbacc = 0.43   
+bigbacc = 0.054   
+cigbacc = 0.075   
+nigbacc = 1   
+aigbinv = 0.35   
+bigbinv = 0.03   
+cigbinv = 0.006   
+eigbinv = 1.1   
+nigbinv = 3   
+aigc = 0.43   
+bigc = 0.054   
+cigc = 0.075   
+nigc = 1   
+aigsd = 0.43   
+bigsd = 0.054   
+cigsd = 0.075   
+dlcig = 0   
+poxedge = 1   
+pigcd = 1   
+ntox = 1   
+toxref     =        4.23e-009                   
*****
*
* TEMPERATURE EFFECTS PARAMETERS
*
+kt1 = '-0.59135+plowvt_kt1_diff_2'   
+kt2 = -0.055045   
+at = 272010   
+ute = -0.13298   
+ua1 = 6.9609e-010   
+ub1 = -7.1909e-020   
+uc1 = -9.961e-012   
+kt1l = 0   
+prt = 0   
*NEW BSIM4 Parameters(HIGH SPEED RF MODEL PARAMETERS)
+xrcrg1 = 12   
+xrcrg2 = 1   
+rbpb       =        50                          
+rbpd       =        50                          
+rbps       =        50                          
+rbdb       =        50                          
+rbsb       =        50                          
+gbmin      =        1e-012                      
****
*NEW BSIM4 Parameters(FLICKER and THERMAL NOISE PARAMETERS)
+noia      =        3.0e+41
+noib      =        0.0
+noic      =        0.0
+em         =       4.1000000e+07
+af         =        1
+ef         =        0.88
+kf         =        0
+ntnoi      =        1
*****
*NEW BSIM4 Parameters(LAYOUT DEPENDENT PARASITIC MODEL PARAMETERS)
+dmcg       =        0                           
+dmcgt      =        0                           
+dmdg       =        0                           
+xgw        =        0                           
+xgl        =        0                           
+ngcon      =        1                           
****
*
*DIODE DC IV PARAMTERS
*
*NEW BSIM4 Parameters(DIODE DC IV parameters)
+diomod     =        1                           
+njs        =        1.3632                      
+jss        =        2.1483e-05                  
+jsws       =        1.4472e-10                  
+xtis       =        5.2                         
+bvs        =        12.69                       
+xjbvs      =        1                           
+ijthsrev   =        0.1                         
+ijthsfwd   =        0.1                         
*
* DIODE and FET CAPACITANCE PARAMETERS
*
+tpb        =        0.001671                    
+tpbsw      =        0.001246                    
+tpbswg     =        0                           
+tcj        =        0.0012407                   
+tcjsw      =        0.00037357                  
+tcjswg     =        2e-012                      
+cgdo       =        '1e-010*plowvt_overlap_mult'   
+cgso       =        '1e-010*plowvt_overlap_mult'   
+cgbo       =        1e-013                      
+capmod     =        2                           
+xpart      =        0                           
+cgsl       =        '0*plowvt_overlap_mult'     
+cgdl       =        '0*plowvt_overlap_mult'     
+cf         =        0                           
+clc        =        7e-008                      
+cle        =        0.492                       
+dlc        =        '0+plowvt_dlc_diff+plowvt_dlc_rotweak'   
+dwc        =        '0+plowvt_dwc_diff'         
+vfbcv      =        -1                          
+acde       =        0.44                        
+moin       =        8.7                         
+noff       =        2.6123                      
+voffcv     =        0.112                       
+ngate      =        1e+023                      
+lwc        =        0                           
+llc        =        0                           
+lwlc       =        0                           
+wlc        =        0                           
+wwc        =        0                           
+wwlc       =        0                           
*NEW BSIM4 Parameters(FET and DIODE capacitance parameters)
+ckappas    =        0.6                         
+cjs        =        '0.00076823*plowvt_ajunction_mult'   
+mjs        =        0.3362                      
+pbs        =        0.6587                      
+cjsws      =        '9.152e-011*plowvt_pjunction_mult'   
+mjsws      =        0.2659                      
+pbsws      =        0.7418                      
+cjswgs     =        '2.3894e-010*plowvt_pjunction_mult'   
+mjswgs     =        0.9274                      
+pbswgs     =        1.4338                      
* 
*STRESS PARAMETERS 
* 
+saref   = 3.0e-06
+sbref   = 3.0e-06
+wlod    = 0.0e-6
+kvth0   = 1.76e-08
+lkvth0  = 0
+wkvth0  = 0.73e-6
+pkvth0  = 0
+llodvth = 0
+wlodvth = 1
+stk2    = 0
+lodk2   = 1
+lodeta0 = 1
+ku0     = 5.9e-08
+lku0    = 0
+wku0    = 0
+pku0    = 0
+llodku0 = 0
+wlodku0 = 1
+kvsat   = 0.0e-6
+steta0  = 0
+tku0    = 0