* BSIMTran Version 0.1.24, Created on 4-26-2002
* Username: hai
* Command Line: /home/hai/config/cydir/bin/lnx86/bsimtran pmos_bsim4.rf pmos -p -npshort pshort_modelnamechanged.pm3 pshort-overlap.pm PDIV1.PMD pdcv1.pm pshort_bsimtranoutput.pm3 
* Working Directory: /home/hai/models/s8/s8tee/models.3.1/pshort/combined
* Time: Sun Jun 10 17:40:56 2007
* Rule File:  pmos_bsim4.rf
* Output File:  pshort_bsimtranoutput.pm3
* Input Files:
* (1) pshort_modelnamechanged.pm3
* (2) pshort-overlap.pm
* (3) PDIV1.PMD
* (4) pdcv1.pm
*copyright, Cypress Semiconductor, 2002
*BSIM3.V3 PMOS Model

.subckt pshort d g s b l=100.0u w=100.0u ad=0 as=0 pd=0 ps=0 nrd=1 nrs=1 rdc=0.0 rsc=0.0 m=1 dtemp=0 nf=1 geo=0.0 delvto=0.0 sa=0.0 sb=0.0 sd=0.0
.model pshort_mod.0 pmos
*
*DC IV MOS PARAMETERS
*
+lmin = 1.45e-07  lmax = 1.55e-07  wmin = 1.255e-06  wmax = 1.265e-06
+level      =        54                          
+tnom       =        30                          
+version    =        4.5                         
+toxm       =        4.23e-009                   
+xj = 1.5e-007   
+lln        =        1                           
+lwn        =        1                           
+wln        =        1                           
+wwn        =        1                           
+lint       =        '-1.3994e-008+pshort_lint_diff'	   
+ll         =        0                           
+lw         =        0                           
+lwl        =        0                           
+wint       =        '7.3039e-009+pshort_wint_diff'	   
+wl         =        0                           
+ww         =        0                           
+wwl        =        0                           
+xl         =        0                           
+xw         =        0                           
+mobmod     =        0                           
+binunit    =        2                           
+dwg = -5.722e-009   
+dwb = -1.7864e-008   
*NEW BSIM4 Parameters(Model Selectors)
+igcmod     =        0                           
+igbmod     =        0                           
+rgatemod   =        0                           
+rbodymod   =        1                           
+trnqsmod   =        0                           
+acnqsmod   =        0                           
+fnoimod    =        1                           
+tnoimod    =        1                           
+permod     =        1                           
+geomod     =        0                           
+rdsmod     =        0                           
+tempmod    =        0                           
*******
*NEW BSIM4 Parameters(4.4 Version)
+lintnoi    =        -2.0e-07                           
+vfbsdoff   =        0                           
+lambda     =        0                           
+vtl        =        0                           
+lc         =        5e-009                      
+xn         =        3                           
+rnoia      =        0.69                       
+rnoib      =        0.34                        
+tnoia      =        25e6                         
+tnoib      =        0.0e-6                         
*NEW BSIM4 Parameters(Process Parameters)
+epsrox     =        3.9                         
+toxe       =        '4.23e-009*pshort_toxe_mult'	
+dtox       =        0                           
+ndep = 1.7e+017   
+nsd = 1e+020   
+rshg       =        0.1                         
****
+rsh        =        '1*pshort_rshp_mult'        
*
* THRESHOLD VOLTAGE PARAMETERS
*
+vth0 = '-1.0652+pshort_vth0_diff_0'	
+k1 = 1.3152469   
+k2 = '-0.27798063+pshort_k2_diff_0'   
+k3 = -15.845   
+dvt0 = 4.4955   
+dvt1 = 0.294   
+dvt2 = 0.015   
+dvt0w = -4.9772   
+dvt1w = 1147200   
+dvt2w = -0.00896   
+w0 = 0   
+k3b = 2   
*NEW BSIM4 Parameters for Level 54
+phin = 0   
+lpe0 = 0   
+lpeb = 0   
+vbm = -3   
+dvtp0 = 0   
+dvtp1 = 0   
*
* MOBILITY PARAMETERS
*
+vsat = '68611+pshort_vsat_diff_0'   
+ua = '-2.4423e-009+pshort_ua_diff_0'   
+ub = '2.0699352e-018+pshort_ub_diff_0'   
+uc = 1.6133739e-013   
+rdsw = '547.88+pshort_rdsw_diff_0'   
+prwb = -0.32348   
+prwg = 0.1376   
+wr = 1   
+u0 = '0.0025134+pshort_u0_diff_0'   
+a0 = '0.91285081+pshort_a0_diff_0'   
+keta = '-0.020464881+pshort_keta_diff_0'   
+a1 = 0   
+a2 = 0.87366558   
+ags = '1.25+pshort_ags_diff_0'   
+b0 = '0+pshort_b0_diff_0'   
+b1 = '0+pshort_b1_diff_0'   
*NEW BSIM4 Parameters(Mobility Parameters)
+eu         =        1.67                        
+rdswmin    =        0                           
+rdw = 0   
+rdwmin     =        0                           
+rsw = 0   
+rswmin     =        0                           
*****
*
* SUBTHRESHOLD CURRENT PARAMETERS
*
+voff = '-0.25076476+pshort_voff_diff_0'	
+nfactor = '1.9+pshort_nfactor_diff_0'	
+up = 0.0
+ud = 0.0
+lp = 1.0
+tvfbsdoff = 0.0
+tvoff = '0+pshort_tvoff_diff_0'
+cit = 1e-005   
+cdsc = 0.00013   
+cdscb = 0.00078   
+cdscd = 0   
+eta0 = '0.21064695+pshort_eta0_diff_0'   
+etab = -0.014728557   
+dsub = 0.26   
*NEW BSIM4 Parameters(Sub-threshold parameters)
+voffl = 0   
+minv = 0   
*****
*
* ROUT PARAMETERS
*
+pclm = '0.61630162+pshort_pclm_diff_0'   
+pdiblc1 = 0.14215108   
+pdiblc2 = 0.0026509038   
+pdiblcb = -0.15188768   
+drout = 1   
+pscbe1 = 8e+008   
+pscbe2 = 9.1788025e-009   
+pvag = 0   
+delta = 0.01   
+alpha0 = 1e-010   
+alpha1 = 1e-010   
+beta0 = 7.9381315   
*NEW BSIM4 Parameters(ROUT Parameters)
+fprout = 0   
+pdits = '0+pshort_pdits_diff_0'   
+pditsl     =        0                           
+pditsd = '0+pshort_pditsd_diff_0'   
****
*NEW BSIM4 Parameters(GATE INDUCED DRAIN LEAKAGE MODEL PARAMTERS)
+agidl = '4.0078966e-010+pshort_agidl_diff_0'   
+bgidl = '1e009+pshort_bgidl_diff_0'   
+cgidl = '300+pshort_cgidl_diff_0'   
+egidl = 0.1   
****
*NEW BSIM4 Parameters(Gate Leakage Current Parameters)
+aigbacc = 0.43   
+bigbacc = 0.054   
+cigbacc = 0.075   
+nigbacc = 1   
+aigbinv = 0.35   
+bigbinv = 0.03   
+cigbinv = 0.006   
+eigbinv = 1.1   
+nigbinv = 3   
+aigc = 0.43   
+bigc = 0.054   
+cigc = 0.075   
+nigc = 1   
+aigsd = 0.43   
+bigsd = 0.054   
+cigsd = 0.075   
+dlcig = 0   
+poxedge = 1   
+pigcd = 1   
+ntox = 1   
+toxref     =        4.23e-009                   
*****
*
* TEMPERATURE EFFECTS PARAMETERS
*
+kt1 = '-0.70976+pshort_kt1_diff_0'   
+kt2 = -0.12   
+at = 50942   
+ute = -0.21243   
+ua1 = 1.8303e-010   
+ub1 = 3.6891e-019   
+uc1 = 6.4484e-012   
+kt1l = 0   
+prt = 0   
*NEW BSIM4 Parameters(HIGH SPEED RF MODEL PARAMETERS)
+xrcrg1 = 12   
+xrcrg2 = 1   
+rbpb       =        50                          
+rbpd       =        50                          
+rbps       =        50                          
+rbdb       =        50                          
+rbsb       =        50                          
+gbmin      =        1e-012                      
****
*NEW BSIM4 Parameters(FLICKER and THERMAL NOISE PARAMETERS)
+noia      =        1.5e+42                   
+noib      =        0.0                  
+noic      =         0.0                   
+em         =        4.1000000E+07                    
+af         =        1                           
+ef        =        1.0                           
+kf         =        0                           
+ntnoi      =        1                           
*****
*NEW BSIM4 Parameters(LAYOUT DEPENDENT PARASITIC MODEL PARAMETERS)
+dmcg       =        0                           
+dmcgt      =        0                           
+dmdg       =        0                           
+xgw        =        0                           
+xgl        =        0                           
+ngcon      =        1                           
****
*
*DIODE DC IV PARAMTERS
*
*NEW BSIM4 Parameters(DIODE DC IV parameters)
+diomod     =        1                           
+njs        =        1.3632                      
+jss        =        2.1483e-05                  
+jsws       =        8.040000000000001e-10       
+xtis       =        5.2                         
+bvs        =        12.69                       
+xjbvs      =        1                           
+ijthsrev   =        0.1                         
+ijthsfwd   =        0.1                         
*
* DIODE and FET CAPACITANCE PARAMETERS
*
+tpb        =        0.0020386                   
+tpbsw      =        0.001246                    
+tpbswg     =        0                           
+tcj        =        0.0012407                   
+tcjsw      =        0.00037357                  
+tcjswg     =        2e-012                      
+cgdo       =        '5.5e-11*pshort_overlap_mult'   
+cgso       =        '5.5e-11*pshort_overlap_mult'   
+cgbo       =        0                           
+capmod     =        2                           
+xpart      =        0                           
+cgsl       =        '1.0005e-011*pshort_overlap_mult'   
+cgdl       =        '1.0005e-011*pshort_overlap_mult'   
+cf         =        1.2e-011                    
+clc        =        1e-007                      
+cle        =        0.6                         
+dwc        =        '0+pshort_dwc_diff'         
+vfbcv      =        -0.14469                    
+acde       =        0.8                       
+moin       =        18.13                       
+noff       =        3.9                         
+voffcv     =        -0.10701                    
+ngate      =        1e+023                      
+lwc        =        0                           
+llc        =        0                           
+lwlc       =        0                           
+wlc        =        0                           
+wwc        =        0                           
+wwlc       =        0                           
*NEW BSIM4 Parameters(FET and DIODE capacitance parameters)
+ckappas    =        0.6                         
+cjs        =        '0.00074079*pshort_ajunction_mult'   
+mjs        =        0.34629                     
+pbs        =        0.6587                      
+cjsws      =        '9.88e-011*pshort_pjunction_mult'   
+mjsws      =        0.29781                     
+pbsws      =        0.7418                      
+cjswgs     =        '2.3894e-010*pshort_pjunction_mult'   
+mjswgs     =        0.9274                      
+pbswgs     =        1.4338                      
* 
*STRESS PARAMETERS 
* 
+saref   = 1.04e-06
+sbref   = 1.04e-06
+wlod    = 0.0e-6
+kvth0    = 3.29e-08
+lkvth0  = 0.0e-6
+wkvth0  = 0.20e-6
+pkvth0  = 0
+llodvth = 0
+wlodvth  = 1
+stk2    = 0
+lodk2   = 1
+lodeta0 = 1
+ku0     = 4.5e-08
+lku0    = 0
+wku0    = 0.25e-6
+pku0    = 0
+llodku0 = 0
+wlodku0  = 1
+kvsat   = 0.5
+steta0  = 0
+tku0    = 0
******

.model pshort_mod.1 pmos
*
*DC IV MOS PARAMETERS
*
+lmin = 1.45e-07  lmax = 1.55e-07  wmin = 1.675e-06  wmax = 1.685e-06
+level      =        54                          
+tnom       =        30                          
+version    =        4.5                         
+toxm       =        4.23e-009                   
+xj = 1.5e-007   
+lln        =        1                           
+lwn        =        1                           
+wln        =        1                           
+wwn        =        1                           
+lint       =        '-1.3994e-008+pshort_lint_diff'	   
+ll         =        0                           
+lw         =        0                           
+lwl        =        0                           
+wint       =        '7.3039e-009+pshort_wint_diff'	   
+wl         =        0                           
+ww         =        0                           
+wwl        =        0                           
+xl         =        0                           
+xw         =        0                           
+mobmod     =        0                           
+binunit    =        2                           
+dwg = -5.722e-009   
+dwb = -1.7864e-008   
*NEW BSIM4 Parameters(Model Selectors)
+igcmod     =        0                           
+igbmod     =        0                           
+rgatemod   =        0                           
+rbodymod   =        1                           
+trnqsmod   =        0                           
+acnqsmod   =        0                           
+fnoimod    =        1                           
+tnoimod    =        1                           
+permod     =        1                           
+geomod     =        0                           
+rdsmod     =        0                           
+tempmod    =        0                           
*******
*NEW BSIM4 Parameters(4.4 Version)
+lintnoi    =        -2.0e-07                           
+vfbsdoff   =        0                           
+lambda     =        0                           
+vtl        =        0                           
+lc         =        5e-009                      
+xn         =        3                           
+rnoia      =        0.69                       
+rnoib      =        0.34                        
+tnoia      =        25e6                         
+tnoib      =        0.0e-6                         
*NEW BSIM4 Parameters(Process Parameters)
+epsrox     =        3.9                         
+toxe       =        '4.23e-009*pshort_toxe_mult'	
+dtox       =        0                           
+ndep = 1.7e+017   
+nsd = 1e+020   
+rshg       =        0.1                         
****
+rsh        =        '1*pshort_rshp_mult'        
*
* THRESHOLD VOLTAGE PARAMETERS
*
+vth0 = '-1.02+pshort_vth0_diff_1'	
+k1 = 1.3255051   
+k2 = '-0.28016116+pshort_k2_diff_1'   
+k3 = -15.845   
+dvt0 = 4.4955   
+dvt1 = 0.294   
+dvt2 = 0.015   
+dvt0w = -4.9772   
+dvt1w = 1147200   
+dvt2w = -0.00896   
+w0 = 0   
+k3b = 2   
*NEW BSIM4 Parameters for Level 54
+phin = 0   
+lpe0 = 0   
+lpeb = 0   
+vbm = -3   
+dvtp0 = 0   
+dvtp1 = 0   
*
* MOBILITY PARAMETERS
*
+vsat = '59524+pshort_vsat_diff_1'   
+ua = '-2.4816e-009+pshort_ua_diff_1'   
+ub = '2.1055982e-018+pshort_ub_diff_1'   
+uc = 9.1597053e-014   
+rdsw = '547.88+pshort_rdsw_diff_1'   
+prwb = -0.32348   
+prwg = 0.1376   
+wr = 1   
+u0 = '0.0024424+pshort_u0_diff_1'   
+a0 = '0.80890904+pshort_a0_diff_1'   
+keta = '0.027840733+pshort_keta_diff_1'   
+a1 = 0   
+a2 = 0.9995   
+ags = '1.25+pshort_ags_diff_1'   
+b0 = '0+pshort_b0_diff_1'   
+b1 = '0+pshort_b1_diff_1'   
*NEW BSIM4 Parameters(Mobility Parameters)
+eu         =        1.67                        
+rdswmin    =        0                           
+rdw = 0   
+rdwmin     =        0                           
+rsw = 0   
+rswmin     =        0                           
*****
*
* SUBTHRESHOLD CURRENT PARAMETERS
*
+voff = '-0.27372667+pshort_voff_diff_1'	
+nfactor = '1.9+pshort_nfactor_diff_1'	
+up = 0.0
+ud = 0.0
+lp = 1.0
+tvfbsdoff = 0.0
+tvoff = '0+pshort_tvoff_diff_1'
+cit = 1e-005   
+cdsc = 0.00013   
+cdscb = 0.00078   
+cdscd = 0   
+eta0 = '0.3010182+pshort_eta0_diff_1'   
+etab = -0.035338434   
+dsub = 0.26   
*NEW BSIM4 Parameters(Sub-threshold parameters)
+voffl = 0   
+minv = 0   
*****
*
* ROUT PARAMETERS
*
+pclm = '0.47998966+pshort_pclm_diff_1'   
+pdiblc1 = 0.0195   
+pdiblc2 = 0.00043   
+pdiblcb = -2.4222865e-005   
+drout = 1   
+pscbe1 = 8e+008   
+pscbe2 = 9.3226724e-009   
+pvag = 0   
+delta = 0.01   
+alpha0 = 1e-010   
+alpha1 = 1e-010   
+beta0 = 7.537679   
*NEW BSIM4 Parameters(ROUT Parameters)
+fprout = 0   
+pdits = '0+pshort_pdits_diff_1'   
+pditsl     =        0                           
+pditsd = '0+pshort_pditsd_diff_1'   
****
*NEW BSIM4 Parameters(GATE INDUCED DRAIN LEAKAGE MODEL PARAMTERS)
+agidl = '2.8211658e-010+pshort_agidl_diff_1'   
+bgidl = '1e009+pshort_bgidl_diff_1'   
+cgidl = '300+pshort_cgidl_diff_1'   
+egidl = 0.1   
****
*NEW BSIM4 Parameters(Gate Leakage Current Parameters)
+aigbacc = 0.43   
+bigbacc = 0.054   
+cigbacc = 0.075   
+nigbacc = 1   
+aigbinv = 0.35   
+bigbinv = 0.03   
+cigbinv = 0.006   
+eigbinv = 1.1   
+nigbinv = 3   
+aigc = 0.43   
+bigc = 0.054   
+cigc = 0.075   
+nigc = 1   
+aigsd = 0.43   
+bigsd = 0.054   
+cigsd = 0.075   
+dlcig = 0   
+poxedge = 1   
+pigcd = 1   
+ntox = 1   
+toxref     =        4.23e-009                   
*****
*
* TEMPERATURE EFFECTS PARAMETERS
*
+kt1 = '-0.70976+pshort_kt1_diff_1'   
+kt2 = -0.12   
+at = 39225   
+ute = -0.21243   
+ua1 = 1.6473e-010   
+ub1 = 3.6891e-019   
+uc1 = 6.4484e-012   
+kt1l = 0   
+prt = 0   
*NEW BSIM4 Parameters(HIGH SPEED RF MODEL PARAMETERS)
+xrcrg1 = 12   
+xrcrg2 = 1   
+rbpb       =        50                          
+rbpd       =        50                          
+rbps       =        50                          
+rbdb       =        50                          
+rbsb       =        50                          
+gbmin      =        1e-012                      
****
*NEW BSIM4 Parameters(FLICKER and THERMAL NOISE PARAMETERS)
+noia      =        1.5e+42                   
+noib      =        0.0                  
+noic      =         0.0                   
+em         =        4.1000000E+07                    
+af         =        1                           
+ef        =        1.0                           
+kf         =        0                           
+ntnoi      =        1                           
*****
*NEW BSIM4 Parameters(LAYOUT DEPENDENT PARASITIC MODEL PARAMETERS)
+dmcg       =        0                           
+dmcgt      =        0                           
+dmdg       =        0                           
+xgw        =        0                           
+xgl        =        0                           
+ngcon      =        1                           
****
*
*DIODE DC IV PARAMTERS
*
*NEW BSIM4 Parameters(DIODE DC IV parameters)
+diomod     =        1                           
+njs        =        1.3632                      
+jss        =        2.1483e-05                  
+jsws       =        8.040000000000001e-10       
+xtis       =        5.2                         
+bvs        =        12.69                       
+xjbvs      =        1                           
+ijthsrev   =        0.1                         
+ijthsfwd   =        0.1                         
*
* DIODE and FET CAPACITANCE PARAMETERS
*
+tpb        =        0.0020386                   
+tpbsw      =        0.001246                    
+tpbswg     =        0                           
+tcj        =        0.0012407                   
+tcjsw      =        0.00037357                  
+tcjswg     =        2e-012                      
+cgdo       =        '5.5e-11*pshort_overlap_mult'   
+cgso       =        '5.5e-11*pshort_overlap_mult'   
+cgbo       =        0                           
+capmod     =        2                           
+xpart      =        0                           
+cgsl       =        '1.0005e-011*pshort_overlap_mult'   
+cgdl       =        '1.0005e-011*pshort_overlap_mult'   
+cf         =        1.2e-011                    
+clc        =        1e-007                      
+cle        =        0.6                         
+dwc        =        '0+pshort_dwc_diff'         
+vfbcv      =        -0.14469                    
+acde       =        0.8                       
+moin       =        18.13                       
+noff       =        3.9                         
+voffcv     =        -0.10701                    
+ngate      =        1e+023                      
+lwc        =        0                           
+llc        =        0                           
+lwlc       =        0                           
+wlc        =        0                           
+wwc        =        0                           
+wwlc       =        0                           
*NEW BSIM4 Parameters(FET and DIODE capacitance parameters)
+ckappas    =        0.6                         
+cjs        =        '0.00074079*pshort_ajunction_mult'   
+mjs        =        0.34629                     
+pbs        =        0.6587                      
+cjsws      =        '9.88e-011*pshort_pjunction_mult'   
+mjsws      =        0.29781                     
+pbsws      =        0.7418                      
+cjswgs     =        '2.3894e-010*pshort_pjunction_mult'   
+mjswgs     =        0.9274                      
+pbswgs     =        1.4338                      
* 
*STRESS PARAMETERS 
* 
+saref   = 1.04e-06
+sbref   = 1.04e-06
+wlod    = 0.0e-6
+kvth0    = 3.29e-08
+lkvth0  = 0.0e-6
+wkvth0  = 0.20e-6
+pkvth0  = 0
+llodvth = 0
+wlodvth  = 1
+stk2    = 0
+lodk2   = 1
+lodeta0 = 1
+ku0     = 4.5e-08
+lku0    = 0
+wku0    = 0.25e-6
+pku0    = 0
+llodku0 = 0
+wlodku0  = 1
+kvsat   = 0.5
+steta0  = 0
+tku0    = 0
******

.model pshort_mod.2 pmos
*
*DC IV MOS PARAMETERS
*
+lmin = 9.95e-07  lmax = 1.005e-06  wmin = 9.95e-07  wmax = 1.005e-06
+level      =        54                          
+tnom       =        30                          
+version    =        4.5                         
+toxm       =        4.23e-009                   
+xj = 1.5e-007   
+lln        =        1                           
+lwn        =        1                           
+wln        =        1                           
+wwn        =        1                           
+lint       =        '-1.3994e-008+pshort_lint_diff'	   
+ll         =        0                           
+lw         =        0                           
+lwl        =        0                           
+wint       =        '7.3039e-009+pshort_wint_diff'	   
+wl         =        0                           
+ww         =        0                           
+wwl        =        0                           
+xl         =        0                           
+xw         =        0                           
+mobmod     =        0                           
+binunit    =        2                           
+dwg = -5.722e-009   
+dwb = -1.7864e-008   
*NEW BSIM4 Parameters(Model Selectors)
+igcmod     =        0                           
+igbmod     =        0                           
+rgatemod   =        0                           
+rbodymod   =        1                           
+trnqsmod   =        0                           
+acnqsmod   =        0                           
+fnoimod    =        1                           
+tnoimod    =        1                           
+permod     =        1                           
+geomod     =        0                           
+rdsmod     =        0                           
+tempmod    =        0                           
*******
*NEW BSIM4 Parameters(4.4 Version)
+lintnoi    =        -2.0e-07                           
+vfbsdoff   =        0                           
+lambda     =        0                           
+vtl        =        0                           
+lc         =        5e-009                      
+xn         =        3                           
+rnoia      =        0.69                       
+rnoib      =        0.34                        
+tnoia      =        25e6                         
+tnoib      =        0.0e-6                         
*NEW BSIM4 Parameters(Process Parameters)
+epsrox     =        3.9                         
+toxe       =        '4.23e-009*pshort_toxe_mult'	
+dtox       =        0                           
+ndep = 1.7e+017   
+nsd = 1e+020   
+rshg       =        0.1                         
****
+rsh        =        '1*pshort_rshp_mult'        
*
* THRESHOLD VOLTAGE PARAMETERS
*
+vth0 = '-1.005+pshort_vth0_diff_2'	
+k1 = 0.45361058   
+k2 = '0.017567785+pshort_k2_diff_2'   
+k3 = -15.845   
+dvt0 = 4.4955   
+dvt1 = 0.294   
+dvt2 = 0.015   
+dvt0w = -4.9772   
+dvt1w = 1147200   
+dvt2w = -0.00896   
+w0 = 0   
+k3b = 2   
*NEW BSIM4 Parameters for Level 54
+phin = 0   
+lpe0 = 0   
+lpeb = 0   
+vbm = -3   
+dvtp0 = 0   
+dvtp1 = 0   
*
* MOBILITY PARAMETERS
*
+vsat = '28810.641+pshort_vsat_diff_2'   
+ua = '-7.4785951e-010+pshort_ua_diff_2'   
+ub = '6.5707758e-019+pshort_ub_diff_2'   
+uc = -4.8679745e-011   
+rdsw = '547.88+pshort_rdsw_diff_2'   
+prwb = -0.32348   
+prwg = 0.1376   
+wr = 1   
+u0 = '0.0072271+pshort_u0_diff_2'   
+a0 = '0.63175+pshort_a0_diff_2'   
+keta = '-0.037840736+pshort_keta_diff_2'   
+a1 = 0   
+a2 = 0.8   
+ags = '1.153125+pshort_ags_diff_2'   
+b0 = '0+pshort_b0_diff_2'   
+b1 = '0+pshort_b1_diff_2'   
*NEW BSIM4 Parameters(Mobility Parameters)
+eu         =        1.67                        
+rdswmin    =        0                           
+rdw = 0   
+rdwmin     =        0                           
+rsw = 0   
+rswmin     =        0                           
*****
*
* SUBTHRESHOLD CURRENT PARAMETERS
*
+voff = '-0.17660159+pshort_voff_diff_2'	
+nfactor = '1.9+pshort_nfactor_diff_2'	
+up = 0.0
+ud = 0.0
+lp = 1.0
+tvfbsdoff = 0.0
+tvoff = '0+pshort_tvoff_diff_2'
+cit = 1e-005   
+cdsc = 0.00013   
+cdscb = 0.00078   
+cdscd = 0   
+eta0 = '0.08+pshort_eta0_diff_2'   
+etab = -0.007   
+dsub = 0.56   
*NEW BSIM4 Parameters(Sub-threshold parameters)
+voffl = 0   
+minv = 0   
*****
*
* ROUT PARAMETERS
*
+pclm = '0.37137649+pshort_pclm_diff_2'   
+pdiblc1 = 0.38223933   
+pdiblc2 = 0.000215   
+pdiblcb = -0.025   
+drout = 0.9112528   
+pscbe1 = 8e+008   
+pscbe2 = 8.4098587e-009   
+pvag = 0   
+delta = 0.01   
+alpha0 = 1e-010   
+alpha1 = 1e-010   
+beta0 = 8.9010262   
*NEW BSIM4 Parameters(ROUT Parameters)
+fprout = 0   
+pdits = '0+pshort_pdits_diff_2'   
+pditsl     =        0                           
+pditsd = '0+pshort_pditsd_diff_2'   
****
*NEW BSIM4 Parameters(GATE INDUCED DRAIN LEAKAGE MODEL PARAMTERS)
+agidl = '1e-010+pshort_agidl_diff_2'   
+bgidl = '1e009+pshort_bgidl_diff_2'   
+cgidl = '300+pshort_cgidl_diff_2'   
+egidl = 0.1   
****
*NEW BSIM4 Parameters(Gate Leakage Current Parameters)
+aigbacc = 0.43   
+bigbacc = 0.054   
+cigbacc = 0.075   
+nigbacc = 1   
+aigbinv = 0.35   
+bigbinv = 0.03   
+cigbinv = 0.006   
+eigbinv = 1.1   
+nigbinv = 3   
+aigc = 0.43   
+bigc = 0.054   
+cigc = 0.075   
+nigc = 1   
+aigsd = 0.43   
+bigsd = 0.054   
+cigsd = 0.075   
+dlcig = 0   
+poxedge = 1   
+pigcd = 1   
+ntox = 1   
+toxref     =        4.23e-009                   
*****
*
* TEMPERATURE EFFECTS PARAMETERS
*
+kt1 = '-0.51384673+pshort_kt1_diff_2'   
+kt2 = -0.06387541   
+at = 22950.061   
+ute = -1.1934315   
+ua1 = -2.4046243e-010   
+ub1 = 4.7991978e-019   
+uc1 = 4.7436576e-011   
+kt1l = 0   
+prt = 0   
*NEW BSIM4 Parameters(HIGH SPEED RF MODEL PARAMETERS)
+xrcrg1 = 12   
+xrcrg2 = 1   
+rbpb       =        50                          
+rbpd       =        50                          
+rbps       =        50                          
+rbdb       =        50                          
+rbsb       =        50                          
+gbmin      =        1e-012                      
****
*NEW BSIM4 Parameters(FLICKER and THERMAL NOISE PARAMETERS)
+noia      =        1.5e+42                   
+noib      =        0.0                  
+noic      =         0.0                   
+em         =        4.1000000E+07                    
+af         =        1                           
+ef        =        1.0                           
+kf         =        0                           
+ntnoi      =        1                           
*****
*NEW BSIM4 Parameters(LAYOUT DEPENDENT PARASITIC MODEL PARAMETERS)
+dmcg       =        0                           
+dmcgt      =        0                           
+dmdg       =        0                           
+xgw        =        0                           
+xgl        =        0                           
+ngcon      =        1                           
****
*
*DIODE DC IV PARAMTERS
*
*NEW BSIM4 Parameters(DIODE DC IV parameters)
+diomod     =        1                           
+njs        =        1.3632                      
+jss        =        2.1483e-05                  
+jsws       =        8.040000000000001e-10       
+xtis       =        5.2                         
+bvs        =        12.69                       
+xjbvs      =        1                           
+ijthsrev   =        0.1                         
+ijthsfwd   =        0.1                         
*
* DIODE and FET CAPACITANCE PARAMETERS
*
+tpb        =        0.0020386                   
+tpbsw      =        0.001246                    
+tpbswg     =        0                           
+tcj        =        0.0012407                   
+tcjsw      =        0.00037357                  
+tcjswg     =        2e-012                      
+cgdo       =        '5.5e-11*pshort_overlap_mult'   
+cgso       =        '5.5e-11*pshort_overlap_mult'   
+cgbo       =        0                           
+capmod     =        2                           
+xpart      =        0                           
+cgsl       =        '1.0005e-011*pshort_overlap_mult'   
+cgdl       =        '1.0005e-011*pshort_overlap_mult'   
+cf         =        1.2e-011                    
+clc        =        1e-007                      
+cle        =        0.6                         
+dwc        =        '0+pshort_dwc_diff'         
+vfbcv      =        -0.14469                    
+acde       =        0.8                       
+moin       =        18.13                       
+noff       =        3.9                         
+voffcv     =        -0.10701                    
+ngate      =        1e+023                      
+lwc        =        0                           
+llc        =        0                           
+lwlc       =        0                           
+wlc        =        0                           
+wwc        =        0                           
+wwlc       =        0                           
*NEW BSIM4 Parameters(FET and DIODE capacitance parameters)
+ckappas    =        0.6                         
+cjs        =        '0.00074079*pshort_ajunction_mult'   
+mjs        =        0.34629                     
+pbs        =        0.6587                      
+cjsws      =        '9.88e-011*pshort_pjunction_mult'   
+mjsws      =        0.29781                     
+pbsws      =        0.7418                      
+cjswgs     =        '2.3894e-010*pshort_pjunction_mult'   