* 3-terminal Vertical Parallel Plate Capacitor /w No Shield
* This is the ~50fF fixed capacitor model
* Fixed layout is here:
* /proj/tlib/s8rf/golden/s8rf/opus/s8rf/s8rf_xcmvpp8p6x7p9/layout

.subckt xcmvpp8p6x7p9 c0 c1 b mf=1
.param
+ctot_a   =  '44.808e-15*xcmvpp8p6x7p9_cor' 
+c0_sub   =  '3.241e-15*cli2s_vpp'  
+c1_sub   =  '1.307e-15*cli2s_vpp'  
+rat_m2   =  0.3761
+rat_m1   =  0.3856
+rat_li   =  0.2383
+cap_m2   =  'rat_m2*ctot_a' 
+cap_m1   =  'rat_m1*ctot_a' 
+cap_li   =  'rat_li*ctot_a' 

+lm2      =  3.685
+wm2      =  0.140
+nfm2     =  44       
+nvia_c0  =  84      
+nvia_c1  =  42       
+lm1      =  3.290
+wm1      =  0.140
+nfm1     =  52      
+ncon_c0  =  84
+ncon_c1  =  16 
+ll1      =  3.655
+wl1      =  0.170
+nfl1     =  38      

rm21  c0 a1   'rm2*lm2/wm2*(1/3)*(1/nfm2)'
cm2   a1 c1   'cap_m2'

rvia1 c0 d0   'rcvia/nvia_c0'
rvia2 c1 d1   'rcvia/nvia_c1'

rm11  d0 b1   'rm1*lm1/wm1*(1/3)*(1/nfm1)'
cm1   b1 d1   'cap_m1'

rcon1 d0 e0   'rcl1/ncon_c0'
rcon2 d1 e1   'rcl1/ncon_c1'

rli1  e0 f1   'rl1*ll1/wl1*(1/3)*(1/nfl1)'
cli   f1 e1   'cap_li'

cli1_b  e0 b  'c0_sub'
cli2_b  e1 b  'c1_sub'

.ends xcmvpp8p6x7p9


* 3-terminal Vertical Parallel Plate Capacitor /w No Shield
* This is the ~12fF fixed capacitor model
* Fixed layout is here:
* /proj/tlib/s8rf/golden/s8rf/opus/s8rf/s8rf_xcmvpp4p4x4p6/layout

.subckt xcmvpp4p4x4p6 c0 c1 b mf=1
.param
+ctot_a   =  '10.791e-15*xcmvpp4p4x4p6_cor'
+c0_sub   =  '1.528e-15*cli2s_vpp'  
+c1_sub   =  '0.440e-15*cli2s_vpp'  
+rat_m2   =  0.447 
+rat_m1   =  0.320 
+rat_li   =  0.233
+cap_m2   =  'rat_m2*ctot_a' 
+cap_m1   =  'rat_m1*ctot_a' 
+cap_li   =  'rat_li*ctot_a' 

+lm2      =  1.585
+wm2      =  0.140
+nfm2     =  24       
+nvia_c0  =  40      
+nvia_c1  =  18       
+lm1      =  1.665
+wm1      =  0.140
+nfm1     =  20      
+ncon_c0  =  42
+ncon_c1  =  8  
+ll1      =  1.555
+wl1      =  0.170
+nfl1     =  20      

rm21  c0 a1   'rm2*lm2/wm2*(1/3)*(1/nfm2)'
cm2   a1 c1   'cap_m2'

rvia1 c0 d0   'rcvia/nvia_c0'
rvia2 c1 d1   'rcvia/nvia_c1'

rm11  d0 b1   'rm1*lm1/wm1*(1/3)*(1/nfm1)'
cm1   b1 d1   'cap_m1'

rcon1 d0 e0   'rcl1/ncon_c0'
rcon2 d1 e1   'rcl1/ncon_c1'

rli1  e0 f1   'rl1*ll1/wl1*(1/3)*(1/nfl1)'
cli   f1 e1   'cap_li'

cli1_b  e0 b  'c0_sub'
cli2_b  e1 b  'c1_sub'

.ends xcmvpp4p4x4p6


* 3-terminal Vertical Parallel Plate Capacitor /w No Shield
* This is the ~115fF fixed capacitor model
* Fixed layout is here:
* /proj/tlib/s8rf/golden/s8rf/opus/s8rf/s8rf_xcmvpp11p5x11p7/layout

.subckt xcmvpp11p5x11p7 c0 c1 b mf=1
.param
+ctot_a   =  '103.595e-15*xcmvpp11p5x11p7_cor' 
+c0_sub   =  '5.222e-15*cli2s_vpp'  
+c1_sub   =  '2.528e-15*cli2s_vpp'  
+rat_m2   =  0.3823
+rat_m1   =  0.3777
+rat_li   =  0.2400
+cap_m2   =  'rat_m2*ctot_a' 
+cap_m1   =  'rat_m1*ctot_a' 
+cap_li   =  'rat_li*ctot_a' 

+lm2      =  5.100
+wm2      =  0.140
+nfm2     =  72       
+nvia_c0  =  124      
+nvia_c1  =  62       
+lm1      =  5.215
+wm1      =  0.140
+nfm1     =  72      
+ncon_c0  =  116
+ncon_c1  =  28 
+ll1      =  3.655
+wl1      =  0.170
+nfl1     =  62      

rm21  c0 a1   'rm2*lm2/wm2*(1/3)*(1/nfm2)'
cm2   a1 c1   'cap_m2'

rvia1 c0 d0   'rcvia/nvia_c0'
rvia2 c1 d1   'rcvia/nvia_c1'

rm11  d0 b1   'rm1*lm1/wm1*(1/3)*(1/nfm1)'
cm1   b1 d1   'cap_m1'

rcon1 d0 e0   'rcl1/ncon_c0'
rcon2 d1 e1   'rcl1/ncon_c1'

rli1  e0 f1   'rl1*ll1/wl1*(1/3)*(1/nfl1)'
cli   f1 e1   'cap_li'

cli1_b  e0 b  'c0_sub'
cli2_b  e1 b  'c1_sub'

.ends xcmvpp11p5x11p7


* 3-terminal Vertical Parallel Plate Capacitor /w No Shield
* This is the ~1fF fixed capacitor model
* Fixed layout is here:
* /proj/tlib/s8rf/golden/s8rf/opus/s8rf/s8rf_xcmvpp1p8x1p8/layout

.subckt xcmvpp1p8x1p8 c0 c1 b mf=1
.param
+ctot_a   =  '9.3996e-16*xcmvpp1p8x1p8_cor' 
+cli2s    =  '4.548e-17*cli2s_vpp'
+rat_m2   =  0.596 
+rat_m1   =  0.387 
+rat_m1li =  0.017
+cap_m2   =  'rat_m2*ctot_a' 
+cap_m1   =  'rat_m1*ctot_a' 
+cap_m1li =  'rat_m1li*ctot_a' 

+nvia_c0  =  8      
+nvia_c1  =  4        
+ncon_c0  =  16

rm21  c0 a1   '28*rm2'  
cm2   a1 c1   'cap_m2'

rvia1 c0 d0   'rcvia/nvia_c0'
rvia2 c1 d1   'rcvia/nvia_c1'

rm11  d0 b1   '22*rm1'
cm1   b1 d1   'cap_m1'

rcon  d0 e0   'rcl1/ncon_c0'

rli1  e0 f0   'rl1'
cli2b  f0 b   'cli2s'
cm1li  d1 e0  'cap_m1li'

.ends xcmvpp1p8x1p8


* 3-terminal Vertical Parallel Plate Capacitor /w LI Shield
* This is the ~50fF fixed capacitor model
* Fixed layout is here:
* /proj/tlib/s8rf/golden/s8rf/opus/s8rf/s8rf_xcmvpp8p6x7p9_lishield/layout

.subckt xcmvpp8p6x7p9_lishield c0 c1 b mf=1
.param
+ctot_a   =  '40.5336e-15*xcmvpp8p6x7p9_lishield_cor' 
+cli2s    =  '4.362e-15*cli2s_vpp'  
+rat_m2   =  0.4690
+rat_m1   =  0.4805
+rat_m12li=  0.0505
+cap_m2   =  'rat_m2*ctot_a' 
+cap_m1   =  'rat_m1*ctot_a' 
+cap_m12li=  'rat_m12li*ctot_a' 

+lm2      =  3.685
+wm2      =  0.140
+nfm2     =  44       
+nvia_c0  =  84      
+nvia_c1  =  42       
+lm1      =  3.290
+wm1      =  0.140
+nfm1     =  52      
+nmcon    =  84

rm21  c0 a1   'rm2*lm2/wm2*(1/3)*(1/nfm2)'
cm2   a1 c1   'cap_m2'

rvia1 c0 d0   'rcvia/nvia_c0'
rvia2 c1 d1   'rcvia/nvia_c1'

rm11  d0 b1   'rm1*lm1/wm1*(1/3)*(1/nfm1)'
cm1   b1 d1   'cap_m1'

rmcon  d0 e0  'rcl1/nmcon'
rliw   e0 f0  'rl1'
cli2b  f0 b   'cli2s'
cm12li d1 f0  'cap_m12li'

.ends xcmvpp8p6x7p9_lishield


* 3-terminal Vertical Parallel Plate Capacitor /w LI Shield
* This is the ~12fF fixed capacitor model
* Fixed layout is here:
* /proj/tlib/s8rf/golden/s8rf/opus/s8rf/s8rf_xcmvpp4p4x4p6_lishield/layout

.subckt xcmvpp4p4x4p6_lishield c0 c1 b mf=1
.param
+ctot_a   =  '10.14e-15*xcmvpp4p4x4p6_lishield_cor' 
+cli2s    =  '1.864e-15*cli2s_vpp'
+rat_m2   =  0.552
+rat_m1   =  0.395 
+rat_m12li=  0.053
+cap_m2   =  'rat_m2*ctot_a' 
+cap_m1   =  'rat_m1*ctot_a' 
+cap_m12li=  'rat_m12li*ctot_a' 

+lm2      =  1.585
+wm2      =  0.140
+nfm2     =  24       
+nvia_c0  =  40      
+nvia_c1  =  18       
+lm1      =  1.665
+wm1      =  0.140
+nfm1     =  20      
+nmcon    =  42

rm21  c0 a1   'rm2*lm2/wm2*(1/3)*(1/nfm2)'
cm2   a1 c1   'cap_m2'

rvia1 c0 d0   'rcvia/nvia_c0'
rvia2 c1 d1   'rcvia/nvia_c1'

rm11  d0 b1   'rm1*lm1/wm1*(1/3)*(1/nfm1)'
cm1   b1 d1   'cap_m1'

rmcon  d0 e0  'rcl1/nmcon'
rliw   e0 f0  'rl1'
cli2b  f0 b   'cli2s'
cm12li d1 f0  'cap_m12li'

.ends xcmvpp4p4x4p6_lishield


* 3-terminal Vertical Parallel Plate Capacitor /w LI Shield
* This is the ~115fF fixed capacitor model
* Fixed layout is here:
* /proj/tlib/s8rf/golden/s8rf/opus/s8rf/s8rf_xcmvpp11p5x11p7_lishield/layout

.subckt xcmvpp11p5x11p7_lishield c0 c1 b mf=1
.param
+ctot_a   =  '91.6716e-15*xcmvpp11p5x11p7_lishield_cor' 
+cli2s    =  '7.521e-15*cli2s_vpp'
+rat_m2   =  0.481 
+rat_m1   =  0.476 
+rat_m12li=  0.043
+cap_m2   =  'rat_m2*ctot_a' 
+cap_m1   =  'rat_m1*ctot_a' 
+cap_m12li=  'rat_m12li*ctot_a' 

+lm2      =  5.100
+wm2      =  0.140
+nfm2     =  72       
+nvia_c0  =  124      
+nvia_c1  =  62       
+lm1      =  5.215
+wm1      =  0.140
+nfm1     =  72      
+nmcon    =  116

rm21  c0 a1   'rm2*lm2/wm2*(1/3)*(1/nfm2)'
cm2   a1 c1   'cap_m2'

rvia1 c0 d0   'rcvia/nvia_c0'
rvia2 c1 d1   'rcvia/nvia_c1'

rm11  d0 b1   'rm1*lm1/wm1*(1/3)*(1/nfm1)'
cm1   b1 d1   'cap_m1'

rmcon  d0 e0  'rcl1/nmcon'
rliw   e0 f0  'rl1'
cli2b  f0 b   'cli2s'
cm12li d1 f0  'cap_m12li'

.ends xcmvpp11p5x11p7_lishield


* 4-terminal Vertical Parallel Plate Capacitor /w Poly + MET3 Shield
* This is the ~50fF fixed capacitor model
* Fixed layout is here:
* /proj/tlib/s8rf/golden/s8rf/opus/s8rf/s8rf_xcmvpp8p6x7p9_m3shield/layout

.subckt xcmvpp8p6x7p9_m3shield c0 c1 b m3 mf=1
.param
+ctot_a   =  '44.8932e-15*xcmvpp8p6x7p9_m3shield_cor' 
+cm3_c0   =  '3.508e-15*cm3m2_vpp'
+cm3_c1   =  '2.772e-15*cm3m2_vpp'
+cpl2s    =  '8.065e-15*cpl2s_vpp'   
+rat_m2   =  0.360 
+rat_m1   =  0.376 
+rat_li   =  0.234
+rat_li2p =  0.030
+cap_m2   =  'rat_m2*ctot_a' 
+cap_m1   =  'rat_m1*ctot_a' 
+cap_li   =  'rat_li*ctot_a' 
+cap_li2p =  'rat_li2p*ctot_a' 

+lm2      =  3.685
+wm2      =  0.140
+nfm2     =  44       
+nvia_c0  =  84      
+nvia_c1  =  42       
+lm1      =  3.290
+wm1      =  0.140
+nfm1     =  52      
+ncon_c0  =  84
+ncon_c1  =  16 
+ll1      =  3.655
+wl1      =  0.170
+nfl1     =  38      
+nlicon   =  84

cm3_0  m3 c0   'cm3_c0'
cm3_1  m3 c1   'cm3_c1'

rm21  c0 a1   'rm2*lm2/wm2*(1/3)*(1/nfm2)'
cm2   a1 c1   'cap_m2'

rvia1 c0 d0   'rcvia/nvia_c0'
rvia2 c1 d1   'rcvia/nvia_c1'

rm11  d0 b1   'rm1*lm1/wm1*(1/3)*(1/nfm1)'
cm1   b1 d1   'cap_m1'

rcon1 d0 e0   'rcl1/ncon_c0'
rcon2 d1 e1   'rcl1/ncon_c1'

rli1  e0 f1   'rl1*ll1/wl1*(1/3)*(1/nfl1)'
cli   f1 e1   'cap_li'

rlicon e0 g0  'rcp1/nlicon'
rpoly  g0 h0  'rp1'
cpl2b  h0 b   'cpl2s'
cl12p  e1 h0  'cap_li2p'

.ends xcmvpp8p6x7p9_m3shield


* 4-terminal Vertical Parallel Plate Capacitor /w Poly + MET3 Shield
* This is the ~12fF fixed capacitor model
* Fixed layout is here:
* /proj/tlib/s8rf/golden/s8rf/opus/s8rf/s8rf_xcmvpp4p4x4p6_m3shield/layout

.subckt xcmvpp4p4x4p6_m3shield c0 c1 b m3 mf=1
.param
+ctot_a   =  '10.7426e-15*xcmvpp4p4x4p6_m3shield_cor'
+cm3_c0   =  '1.386e-15*cm3m2_vpp'
+cm3_c1   =  '0.745e-15*cm3m2_vpp'
+cpl2s    =  '2.838e-15*cpl2s_vpp'
+rat_m2   =  0.300 
+rat_m1   =  0.385 
+rat_li   =  0.280
+rat_li2p =  0.035
+cap_m2   =  'rat_m2*ctot_a' 
+cap_m1   =  'rat_m1*ctot_a' 
+cap_li   =  'rat_li*ctot_a' 
+cap_li2p =  'rat_li2p*ctot_a' 

+lm2      =  1.585
+wm2      =  0.140
+nfm2     =  24       
+nvia_c0  =  40      
+nvia_c1  =  18       
+lm1      =  1.665
+wm1      =  0.140
+nfm1     =  20      
+ncon_c0  =  42
+ncon_c1  =  8  
+ll1      =  1.555
+wl1      =  0.170
+nfl1     =  20      
+nlicon   =  44

cm3_0  m3 c0   'cm3_c0'
cm3_1  m3 c1   'cm3_c1'

rm21  c0 a1   'rm2*lm2/wm2*(1/3)*(1/nfm2)'
cm2   a1 c1   'cap_m2'

rvia1 c0 d0   'rcvia/nvia_c0'
rvia2 c1 d1   'rcvia/nvia_c1'

rm11  d0 b1   'rm1*lm1/wm1*(1/3)*(1/nfm1)'
cm1   b1 d1   'cap_m1'

rcon1 d0 e0   'rcl1/ncon_c0'
rcon2 d1 e1   'rcl1/ncon_c1'

rli1  e0 f1   'rl1*ll1/wl1*(1/3)*(1/nfl1)'
cli   f1 e1   'cap_li'

rlicon e0 g0  'rcp1/nlicon'
rpoly  g0 h0  'rp1'
cpl2b  h0 b   'cpl2s'
cl12p  e1 h0  'cap_li2p'

.ends xcmvpp4p4x4p6_m3shield


* 4-terminal Vertical Parallel Plate Capacitor /w Poly + MET3 Shield
* This is the ~115fF fixed capacitor model
* Fixed layout is here:
* /proj/tlib/s8rf/golden/s8rf/opus/s8rf/s8rf_xcmvpp11p5x11p7_m3shield/layout

.subckt xcmvpp11p5x11p7_m3shield c0 c1 b m3 mf=1
.param
+ctot_a   =  '102.751e-15*xcmvpp11p5x11p7_m3shield_cor' 
+cm3_c0   =  '7.160e-15*cm3m2_vpp'
+cm3_c1   =  '5.080e-15*cm3m2_vpp'
+cpl2s    =  '15.567e-15*cpl2s_vpp'
+rat_m2   =  0.435 
+rat_m1   =  0.250 
+rat_li   =  0.275
+rat_li2p =  0.040
+cap_m2   =  'rat_m2*ctot_a' 
+cap_m1   =  'rat_m1*ctot_a' 
+cap_li   =  'rat_li*ctot_a' 
+cap_li2p =  'rat_li2p*ctot_a' 

+lm2      =  5.100
+wm2      =  0.140
+nfm2     =  72       
+nvia_c0  =  124      
+nvia_c1  =  62       
+lm1      =  5.215
+wm1      =  0.140
+nfm1     =  72      
+ncon_c0  =  116
+ncon_c1  =  28 
+ll1      =  3.655
+wl1      =  0.170
+nfl1     =  62      
+nlicon   =  126

cm3_0  m3 c0   'cm3_c0'
cm3_1  m3 c1   'cm3_c1'

rm21  c0 a1   'rm2*lm2/wm2*(1/3)*(1/nfm2)'
cm2   a1 c1   'cap_m2'

rvia1 c0 d0   'rcvia/nvia_c0'
rvia2 c1 d1   'rcvia/nvia_c1'

rm11  d0 b1   'rm1*lm1/wm1*(1/3)*(1/nfm1)'
cm1   b1 d1   'cap_m1'

rcon1 d0 e0   'rcl1/ncon_c0'
rcon2 d1 e1   'rcl1/ncon_c1'

rli1  e0 f1   'rl1*ll1/wl1*(1/3)*(1/nfl1)'
cli   f1 e1   'cap_li'

rlicon e0 g0  'rcp1/nlicon'
rpoly  g0 h0  'rp1'
cpl2b  h0 b   'cpl2s'
cl12p  e1 h0  'cap_li2p'

.ends xcmvpp11p5x11p7_m3shield


* 4-terminal Vertical Parallel Plate Capacitor /w LI + MET3 Shield
* This is the ~1fF fixed capacitor model
* Fixed layout is here:
* /proj/tlib/s8rf/golden/s8rf/opus/s8rf/s8rf_xcmvpp1p8x1p8_m3shield/layout

.subckt xcmvpp1p8x1p8_m3shield c0 c1 b m3 mf=1
.param
+ctot_a   =  '693.930e-18*xcmvpp1p8x1p8_m3shield_cor' 
+cm3_c0   =  '0.444e-15*cm3m2_vpp'
+cm3_c1   =  '0.179e-15*cm3m2_vpp'
+cli2s    =  '0.104e-15*cli2s_vpp'
+rat_m2   =  0.596 
+rat_m1   =  0.387 
+rat_m1li =  0.017
+cap_m2   =  'rat_m2*ctot_a' 
+cap_m1   =  'rat_m1*ctot_a' 
+cap_m1li =  'rat_m1li*ctot_a' 

+nvia_c0  =  8      
+nvia_c1  =  4        
+ncon_c0  =  16

cm3_0  m3 c0   'cm3_c0'
cm3_1  m3 c1   'cm3_c1'

rm21  c0 a1   '28*rm2'  
cm2   a1 c1   'cap_m2'

rvia1 c0 d0   'rcvia/nvia_c0'
rvia2 c1 d1   'rcvia/nvia_c1'

rm11  d0 b1   '22*rm1'
cm1   b1 d1   'cap_m1'

rcon  d0 e0   'rcl1/ncon_c0'

rli1  e0 f0   'rl1'
cli2b  f0 b   'cli2s'
cm1li  d1 e0  'cap_m1li'

.ends xcmvpp1p8x1p8_m3shield

* Vertical Parallel Plate Capacitor #1
* This is the 7.5x7.5 um ~50fF fixed capacitor model
* Fixed layout is here:
* /proj/tlib/s8/golden/s8cell/opus/s8rf/xcmvpp1/layout

.subckt xcmvpp c0 c1 b mf=1
.param
+lvpp=7.5 wm1=0.14 wm2=0.14 wli=0.17
+ctot_a  =  '56.973948e-15*cvpp_cor' 
+rat_m2  =  0.4325
+rat_m1  =  0.3175
+rat_li  =  0.25
+cap_m2  =  'rat_m2*ctot_a' 
+cap_m1  =  'rat_m1*ctot_a' 
+cap_li  =  'rat_li*ctot_a' 
*+caps_m2 =  4.67e-20 $ Negligible
*+caps_m1 =  4.67e-20 $ Negligible
+caps_li =  1.27e-17

+nvia    =  25        $ Each side
+ncon    =  19        $ Each side
+nf      =  14        $ Each side

rm21  c0 a1   '2*rm2*lvpp/wm2*(1/3)*(1/nf)'
cm2   a1 c1   'cap_m2'

rvia1 c0 d0   'rcvia/nvia'
rvia2 c1 d1   'rcvia/nvia'

rm11  d0 b1   '2*rm1*lvpp/wm1*(1/3)*(1/nf)'
cm1   b1 d1   'cap_m1'

rcon1 d0 e0   'rcl1/ncon'
rcon2 d1 e1   'rcl1/ncon'

rli1  e0 f1   '2*rl1*lvpp/wli*(1/3)*(1/nf)'
cli   f1 e1   'cap_li'

*Shunt Caps
*csm21 c0 b    'caps_m2*nf*lvpp'
*csm22 c1 b    'caps_m2*nf*lvpp'
                                                         
*csm11 d0 b    'caps_m1*nf*lvpp'
*csm12 d1 b    'caps_m1*nf*lvpp'

csli1 e0 b    'caps_li*nf*lvpp'
csli2 e1 b    'caps_li*nf*lvpp'

.ends xcmvpp


* Vertical Parallel Plate Capacitor #2
* This is the 3.6x3.6 um ~12fF fixed capacitor model
* Fixed layout is here:
* /proj/tlib/s8/golden/s8cell/opus/s8rf/xcmvpp2/layout

* THIS MODEL IS CURRENTLY PRE-SILICON

.subckt xcmvpp_2 c0 c1 b mf=1
.param
+lvpp=3.6 wm1=0.14 wm2=0.14 wli=0.17
+ctot_a  =  '15.10815e-15*cvpp_cor' 
+rat_m2  =  0.4325
+rat_m1  =  0.3175
+rat_li  =  0.25
+cap_m2  =  'rat_m2*ctot_a' 
+cap_m1  =  'rat_m1*ctot_a' 
+cap_li  =  'rat_li*ctot_a' 
*+caps_m2 =  4.67e-20 $ Negligible
*+caps_m1 =  4.67e-20 $ Negligible
+caps_li =  1.27e-17

+nvia    =  11        $ Each side
+ncon    =  10        $ Each side
+nf      =   6        $ Each side

rm21  c0 a1   '2*rm2*lvpp/wm2*(1/3)*(1/nf)'
cm2   a1 c1   'cap_m2'

rvia1 c0 d0   'rcvia/nvia'
rvia2 c1 d1   'rcvia/nvia'

rm11  d0 b1   '2*rm1*lvpp/wm1*(1/3)*(1/nf)'
cm1   b1 d1   'cap_m1'

rcon1 d0 e0   'rcl1/ncon'
rcon2 d1 e1   'rcl1/ncon'

rli1  e0 f1   '2*rl1*lvpp/wli*(1/3)*(1/nf)'
cli   f1 e1   'cap_li'

*Shunt Caps
*csm21 c0 b    'caps_m2*nf*lvpp'
*csm22 c1 b    'caps_m2*nf*lvpp'
                                                         
*csm11 d0 b    'caps_m1*nf*lvpp'
*csm12 d1 b    'caps_m1*nf*lvpp'

csli1 e0 b    'caps_li*nf*lvpp'
csli2 e1 b    'caps_li*nf*lvpp'

.ends xcmvpp_2

* Vertical Parallel Plate Capacitor (Symmetric style)
* This is the 7.8x8.6um ~35fF M12 finger capacitor model
* Fixed layout is here:
* //depot/icm/proj/s8rf2/dev/opus/s8rf2/s8rf2_xcmvpp3

.subckt xcmvpp3 c0 c1 b mf=1 presim_flag=0
.param
+lvpp=7.06 wm1=0.14 wm2=0.14
+ctot_a  =  '48.1130e-15*cvpp3_cor' 
+rat_m2  =  0.5767
+rat_m1  =  0.4233
+cap_m2  =  'rat_m2*ctot_a' 
+cap_m1  =  'rat_m1*ctot_a' 
+caps_m1 =  '(1.65 + presim_flag*0.19)*1e-15*cli2s_vpp'

+nvia    =  47        $ Each side
+nf      =  14        $ Each side

rm21  c0 a1   '2*rm2*lvpp/wm2*(1/3)*(1/nf)'
cm2   a1 c1   'cap_m2'

rvia1 c0 d0   'rcvia/nvia'
rvia2 c1 d1   'rcvia/nvia'

rm11  d0 b1   '2*rm1*lvpp/wm1*(1/3)*(1/nf)'
cm1   b1 d1   'cap_m1'

csli1 d0 b    'caps_m1'
csli2 d1 b    'caps_m1'

.ends xcmvpp3

* Vertical Parallel Plate Capacitor (Symmetric style)
* This is the 4.38x4.59um ~10fF M12 finger capacitor model
* Fixed layout is here:
* //depot/icm/proj/s8rf2/dev/opus/s8rf2/s8rf2_xcmvpp4

.subckt xcmvpp4 c0 c1 b mf=1 presim_flag=0
.param
+lvpp=3.81 wm1=0.14 wm2=0.14
+ctot_a  =  '12.2472e-15*cvpp4_cor' 
+rat_m2  =  0.5767
+rat_m1  =  0.4233
+cap_m2  =  'rat_m2*ctot_a' 
+cap_m1  =  'rat_m1*ctot_a' 
+caps_m1 =  '(0.72 + presim_flag*0.10)*1e-15*cli2s_vpp'

+nvia    =  25        $ Each side
+nf      =   7        $ Each side

rm21  c0 a1   '2*rm2*lvpp/wm2*(1/3)*(1/nf)'
cm2   a1 c1   'cap_m2'

rvia1 c0 d0   'rcvia/nvia'
rvia2 c1 d1   'rcvia/nvia'

rm11  d0 b1   '2*rm1*lvpp/wm1*(1/3)*(1/nf)'
cm1   b1 d1   'cap_m1'

csli1 d0 b    'caps_m1'
csli2 d1 b    'caps_m1'

.ends xcmvpp4

* Vertical Parallel Plate Capacitor (Symmetric style)
* This is the 4.38x2.69um ~5fF M12 finger capacitor model
* Fixed layout is here:
* //depot/icm/proj/s8rf2/dev/opus/s8rf2/s8rf2_xcmvpp5

.subckt xcmvpp5 c0 c1 b mf=1 presim_flag=0
.param
+lvpp=3.81 wm1=0.14 wm2=0.14
+ctot_a  =  '5.75655e-15*cvpp5_cor' 
+rat_m2  =  0.5767
+rat_m1  =  0.4233
+cap_m2  =  'rat_m2*ctot_a' 
+cap_m1  =  'rat_m1*ctot_a' 
+capc0_m1 =  '(0.27 + presim_flag*0.02)*1e-15*cli2s_vpp'
+capc1_m1 =  '(0.72 + presim_flag*0.12)*1e-15*cli2s_vpp'

+nvia    =  17        $ Each side
+nf      =   7        $ Each side

rm21  c0 a1   '2*rm2*lvpp/wm2*(1/3)*(1/nf)'
cm2   a1 c1   'cap_m2'

rvia1 c0 d0   'rcvia/nvia'
rvia2 c1 d1   'rcvia/nvia'

rm11  d0 b1   '2*rm1*lvpp/wm1*(1/3)*(1/nf)'
cm1   b1 d1   'cap_m1'

csli1 d0 b    'capc0_m1'
csli2 d1 b    'capc1_m1'

.ends xcmvpp5

* Vertical Parallel Plate Capacitor (Asymmetric style)
* This is the 4.4x4.6um ~8fF M12 finger capacitor model
* Fixed layout is here:
* //depot/icm/proj/s8rf2/dev/opus/s8rf2/s8rf2_xcmvpp4p4x4p6_m1m2

.subckt xcmvpp4p4x4p6_m1m2 c0 c1 b mf=1 presim_flag=0
.param
+lvpp=1.585 wm1=0.14 wm2=0.14
+ctot_a  =  '9.21483e-15*xcmvpp4p4x4p6_m3_lishield_cor' 
+rat_m2  =  0.5767
+rat_m1  =  0.4233
+cap_m2  =  'rat_m2*ctot_a' 
+cap_m1  =  'rat_m1*ctot_a' 
+caps_c0 =  '(1.02 + presim_flag*0.22)*1e-15*cli2s_vpp'
+caps_c1 =  '0.39e-15*cli2s_vpp'

+nvia_c0 =  40        $ Each side
+nvia_c1 =  18        $ Each side
+nf      =  16        $ Each side

rm21  c0 a1   '2*rm2*lvpp/wm2*(1/3)*(1/nf)'
cm2   a1 c1   'cap_m2'

rvia1 c0 d0   'rcvia/nvia_c0'
rvia2 c1 d1   'rcvia/nvia_c1'

rm11  d0 b1   '2*rm1*lvpp/wm1*(1/3)*(1/nf)'
cm1   b1 d1   'cap_m1'

csli1 d0 b    'caps_c0'
csli2 d1 b    'caps_c1'

.ends xcmvpp4p4x4p6_m1m2

* Vertical Parallel Plate Capacitor (Asymmetric style)
* This is the 11.5x11.7um ~75fF M12 finger capacitor model
* Fixed layout is here:
* //depot/icm/proj/s8rf2/dev/opus/s8rf2/s8rf2_xcmvpp11p5x11p7_m1m2

.subckt xcmvpp11p5x11p7_m1m2 c0 c1 b mf=1 presim_flag=0
.param
+lvpp=5.1 wm1=0.14 wm2=0.14
***  Using the variation from the 4.4x4.6 because the 11.5x11.7 with LI shield is too tight.  This is not a typo. 
+ctot_a  =  '89.61588e-15*xcmvpp4p4x4p6_m3_lishield_cor' 
+rat_m2  =  0.5767
+rat_m1  =  0.4233
+cap_m2  =  'rat_m2*ctot_a' 
+cap_m1  =  'rat_m1*ctot_a' 
+caps_c0 =  '(3.56 + presim_flag*0.55)*1e-15*cli2s_vpp'
+caps_c1 =  '2.01e-15*cli2s_vpp'

+nvia_c0 =  124        $ Each side
+nvia_c1 =   62        $ Each side
+nf      =   40        $ Each side

rm21  c0 a1   '2*rm2*lvpp/wm2*(1/3)*(1/nf)'
cm2   a1 c1   'cap_m2'

rvia1 c0 d0   'rcvia/nvia_c0'
rvia2 c1 d1   'rcvia/nvia_c1'

rm11  d0 b1   '2*rm1*lvpp/wm1*(1/3)*(1/nf)'
cm1   b1 d1   'cap_m1'

csli1 d0 b    'caps_c0'
csli2 d1 b    'caps_c1'

.ends xcmvpp11p5x11p7_m1m2

.subckt xcmvpp2_nhvnative10x4 c0 c1 b mf=1
.param
+lvpp=3.6 wm1=0.14 wm2=0.14 wli=0.17
+ctot_a  =  '14.0849e-15*cvpp2_nhvnative10x4_cor' 
***Note:  The 
+rat_m2  =  0.4325
+rat_m1  =  0.3175
+rat_li  =  0.25
+cap_m2  =  'rat_m2*ctot_a' 
+cap_m1  =  'rat_m1*ctot_a' 
+cap_li  =  'rat_li*ctot_a' 
*+caps_m2 =  4.67e-20 $ Negligible
*+caps_m1 =  4.67e-20 $ Negligible
+caps_li =  'cvpp2_nhvnative10x4_sub'

+nvia    =  11        $ Each side
+ncon    =  10        $ Each side
+nf      =   6        $ Each side

rm21  c0 a1   '2*rm2*lvpp/wm2*(1/3)*(1/nf)'
cm2   a1 c1   'cap_m2'

rvia1 c0 d0   'rcvia/nvia'
rvia2 c1 d1   'rcvia/nvia'

rm11  d0 b1   '2*rm1*lvpp/wm1*(1/3)*(1/nf)'
cm1   b1 d1   'cap_m1'

rcon1 d0 e0   'rcl1/ncon'
rcon2 d1 e1   'rcl1/ncon'

rli1  e0 f1   '2*rl1*lvpp/wli*(1/3)*(1/nf)'
cli   f1 e1   'cap_li'

*Shunt Caps
*csm21 c0 b    'caps_m2*nf*lvpp'
*csm22 c1 b    'caps_m2*nf*lvpp'
                                                         
*csm11 d0 b    'caps_m1*nf*lvpp'
*csm12 d1 b    'caps_m1*nf*lvpp'

csli1 e0 b    'caps_li'
csli2 e1 b    'caps_li'

.ends xcmvpp2_nhvnative10x4

.subckt xcmvpp2_phv5x4 c0 c1 b mf=1
.param
+lvpp=3.6 wm1=0.14 wm2=0.14 wli=0.17
+ctot_a  =  '14.0849e-15*cvpp2_phv5x4_cor' 
***Note:  The 
+rat_m2  =  0.4325
+rat_m1  =  0.3175
+rat_li  =  0.25
+cap_m2  =  'rat_m2*ctot_a' 
+cap_m1  =  'rat_m1*ctot_a' 
+cap_li  =  'rat_li*ctot_a' 
*+caps_m2 =  4.67e-20 $ Negligible
*+caps_m1 =  4.67e-20 $ Negligible
+caps_li =  'cvpp2_phv5x4_sub'

+nvia    =  11        $ Each side
+ncon    =  10        $ Each side
+nf      =   6        $ Each side

rm21  c0 a1   '2*rm2*lvpp/wm2*(1/3)*(1/nf)'
cm2   a1 c1   'cap_m2'

rvia1 c0 d0   'rcvia/nvia'
rvia2 c1 d1   'rcvia/nvia'

rm11  d0 b1   '2*rm1*lvpp/wm1*(1/3)*(1/nf)'
cm1   b1 d1   'cap_m1'

rcon1 d0 e0   'rcl1/ncon'
rcon2 d1 e1   'rcl1/ncon'

rli1  e0 f1   '2*rl1*lvpp/wli*(1/3)*(1/nf)'
cli   f1 e1   'cap_li'

*Shunt Caps
*csm21 c0 b    'caps_m2*nf*lvpp'
*csm22 c1 b    'caps_m2*nf*lvpp'
                                                         
*csm11 d0 b    'caps_m1*nf*lvpp'
*csm12 d1 b    'caps_m1*nf*lvpp'

csli1 e0 b    'caps_li'
csli2 e1 b    'caps_li'

.ends xcmvpp2_phv5x4

* 4-terminal Vertical Parallel Plate Capacitor /w LI-M4 fingers and M5 Shield (for S8P ONLY)
* Fixed layout is here:
* //depot/icm/proj/s8rf2/dev/opus/s8rf2/s8rf2_xcmvpp11p5x11p7_m5shield

.subckt xcmvpp11p5x11p7_m5shield c0 c1 b m5 mf=1
.param
+ctot_a   =  '151.1950e-15*xcmvpp11p5x11p7_m5shield_cor' 
+cm5_c0   =  '5.11e-15*c0m5m4_vpp'
+cm5_c1   =  '3.89e-15*c1m5m4_vpp'
+c0_sub   =  '(5.36e-15-0.58e-15)*cli2s_vpp'
+c1_sub   =  '2.34e-15*cli2s_vpp'
+rat_m4   =  0.1120
+rat_m3   =  0.1120
+rat_m2   =  0.2966
+rat_m1   =  0.2931
+rat_li   =  0.1863
+cap_m4   =  'rat_m4*ctot_a' 
+cap_m3   =  'rat_m3*ctot_a' 
+cap_m2   =  'rat_m2*ctot_a' 
+cap_m1   =  'rat_m1*ctot_a' 
+cap_li   =  'rat_li*ctot_a' 

+ll1      =  5.070
+lm1      =  5.215
+lm2      =  5.095
+lm3      =  5.050
+lm4      =  4.910
+wl1      =  0.170
+wm1      =  0.140
+wm2      =  0.140
+wm3      =  0.300 
+wm4      =  0.300
+nfl1     =  62      
+nfm1     =  72      
+nfm2     =  72       
+nfm3     =  34
+nfm4     =  34
+nvia3_c0  = 103
+nvia3_c1  = 49
+nvia2_c0  = 104
+nvia2_c1  = 49
+nvia_c0  =  124      
+nvia_c1  =  62       
+ncon_c0  =  116
+ncon_c1  =  28 

cm5_0  m5 a0   'cm5_c0'
cm5_1  m5 a1   'cm5_c1'

rsm4  a0 a2   'rm4*lm4/wm4*(1/3)*(1/nfm4)'
cm4   a2 a1   'cap_m4'

rvia3_0 a0 b0   'rcvia3/nvia3_c0'
rvia3_1 a1 b1   'rcvia3/nvia3_c1'

rsm3   b0 b2   'rm3*lm3/wm3*(1/3)*(1/nfm3)'
cm3    b2 b1   'cap_m3'

rvia2_0 b0 c0   'rcvia2/nvia2_c0'
rvia2_1 b1 c1   'rcvia2/nvia2_c1'

rsm2   c0 c2   'rm2*lm2/wm2*(1/3)*(1/nfm2)'
cm2    c2 c1   'cap_m2'

rvia_0 c0 d0   'rcvia/nvia_c0'
rvia_1 c1 d1   'rcvia/nvia_c1'

rsm1   d0 d2   'rm1*lm1/wm1*(1/3)*(1/nfm1)'
cm1    d2 d1   'cap_m1'

rcon1 d0 e0   'rcl1/ncon_c0'
rcon2 d1 e1   'rcl1/ncon_c1'

rli1  e0 e2   'rl1*ll1/wl1*(1/3)*(1/nfl1)'
cli   e2 e1   'cap_li'

cli2b_0  e0 b  'c0_sub'
cli2b_1  e1 b  'c1_sub'

.ends xcmvpp11p5x11p7_m5shield

* 4-terminal Vertical Parallel Plate Capacitor /w LI-M4 fingers and Poly5 Shield (for S8P ONLY)
* Fixed layout is here:
* //depot/icm/proj/s8rf2/dev/opus/s8rf2/s8rf2_xcmvpp11p5x11p7_polym5shield

.subckt xcmvpp11p5x11p7_polym5shield c0 c1 b m5 mf=1
.param
+ctot_a   =  '155.3530e-15*xcmvpp11p5x11p7_polym5shield_cor' 
+cm5_c0   =  '5.11e-15*c0m5m4_vpp'
+cm5_c1   =  '3.89e-15*c1m5m4_vpp'
+cpl2s    =  '(18.06e-15-2.14e-15)*cpl2s_vpp'
+rat_m4   =  0.1120
+rat_m3   =  0.1120
+rat_m2   =  0.2836
+rat_m1   =  0.2801
+rat_li   =  0.1863
+rat_li2p =  0.026
+cap_m4   =  'rat_m4*ctot_a' 
+cap_m3   =  'rat_m3*ctot_a' 
+cap_m2   =  'rat_m2*ctot_a' 
+cap_m1   =  'rat_m1*ctot_a' 
+cap_li   =  'rat_li*ctot_a' 
+cap_li2p =  'rat_li2p*ctot_a' 

+ll1      =  5.070
+lm1      =  5.215
+lm2      =  5.095
+lm3      =  5.050
+lm4      =  4.910
+wl1      =  0.170
+wm1      =  0.140
+wm2      =  0.140
+wm3      =  0.300 
+wm4      =  0.300
+nfl1     =  62      
+nfm1     =  72      
+nfm2     =  72       
+nfm3     =  34
+nfm4     =  34
+nvia3_c0  = 103
+nvia3_c1  = 49
+nvia2_c0  = 104
+nvia2_c1  = 49
+nvia_c0  =  124      
+nvia_c1  =  62       
+ncon_c0  =  116
+ncon_c1  =  28 
+nlicon   =  126

cm5_0  m5 a0   'cm5_c0'
cm5_1  m5 a1   'cm5_c1'

rsm4  a0 a2   'rm4*lm4/wm4*(1/3)*(1/nfm4)'
cm4   a2 a1   'cap_m4'

rvia3_0 a0 b0   'rcvia3/nvia3_c0'
rvia3_1 a1 b1   'rcvia3/nvia3_c1'

rsm3   b0 b2   'rm3*lm3/wm3*(1/3)*(1/nfm3)'
cm3    b2 b1   'cap_m3'

rvia2_0 b0 c0   'rcvia2/nvia2_c0'
rvia2_1 b1 c1   'rcvia2/nvia2_c1'

rsm2   c0 c2   'rm2*lm2/wm2*(1/3)*(1/nfm2)'
cm2    c2 c1   'cap_m2'

rvia_0 c0 d0   'rcvia/nvia_c0'
rvia_1 c1 d1   'rcvia/nvia_c1'

rsm1   d0 d2   'rm1*lm1/wm1*(1/3)*(1/nfm1)'
cm1    d2 d1   'cap_m1'

rcon1 d0 e0   'rcl1/ncon_c0'
rcon2 d1 e1   'rcl1/ncon_c1'

rli1  e0 e2   'rl1*ll1/wl1*(1/3)*(1/nfl1)'
cli   e2 e1   'cap_li'

rlicon e0 f0  'rcp1/nlicon'
rpoly  f0 f2  'rp1'
cl12p  e1 f2  'cap_li2p'
cpl2b  f0 b   'cpl2s'

.ends xcmvpp11p5x11p7_polym5shield

* 4-terminal Vertical Parallel Plate Capacitor /w M1-M4 fingers and LI5 Shield (for S8P ONLY)
* Fixed layout is here:
* //depot/icm/proj/s8rf2/dev/opus/s8rf2/s8rf2_xcmvpp11p5x11p7_lim5shield

.subckt xcmvpp11p5x11p7_lim5shield c0 c1 b m5 mf=1
.param
+ctot_a   =  '140.1000e-15*xcmvpp11p5x11p7_lim5shield_cor' 
+cm5_c0   =  '5.41e-15*c0m5m4_vpp'
+cm5_c1   =  '3.88e-15*c1m5m4_vpp'
+cli2s    =  '(7.59-0.58)*1e-15*cli2s_vpp'
+rat_m4   =  0.1376
+rat_m3   =  0.1376
+rat_m2   =  0.3485
+rat_m1   =  0.3442
+rat_m12li=  0.0321
+cap_m4   =  'rat_m4*ctot_a' 
+cap_m3   =  'rat_m3*ctot_a' 
+cap_m2   =  'rat_m2*ctot_a' 
+cap_m1   =  'rat_m1*ctot_a' 
+cap_m12li=  'rat_m12li*ctot_a' 

+lm1      =  5.215
+lm2      =  5.095
+lm3      =  5.050
+lm4      =  4.910
+wm1      =  0.140
+wm2      =  0.140
+wm3      =  0.300 
+wm4      =  0.300
+nfm1     =  72      
+nfm2     =  72       
+nfm3     =  34
+nfm4     =  34
+nvia3_c0  = 103
+nvia3_c1  = 49
+nvia2_c0  = 104
+nvia2_c1  = 49
+nvia_c0  =  124      
+nvia_c1  =  62       
+nmcon    =  116

cm5_0  m5 a0   'cm5_c0'
cm5_1  m5 a1   'cm5_c1'

rsm4  a0 a2   'rm4*lm4/wm4*(1/3)*(1/nfm4)'
cm4   a2 a1   'cap_m4'

rvia3_0 a0 b0   'rcvia3/nvia3_c0'
rvia3_1 a1 b1   'rcvia3/nvia3_c1'

rsm3   b0 b2   'rm3*lm3/wm3*(1/3)*(1/nfm3)'
cm3    b2 b1   'cap_m3'

rvia2_0 b0 c0   'rcvia2/nvia2_c0'
rvia2_1 b1 c1   'rcvia2/nvia2_c1'

rsm2   c0 c2   'rm2*lm2/wm2*(1/3)*(1/nfm2)'
cm2    c2 c1   'cap_m2'

rvia_0 c0 d0   'rcvia/nvia_c0'
rvia_1 c1 d1   'rcvia/nvia_c1'

rsm1   d0 d2   'rm1*lm1/wm1*(1/3)*(1/nfm1)'
cm1    d2 d1   'cap_m1'

rmcon  d0 e0  'rcl1/nmcon'
rliw   e0 f0  'rl1'
cli2b  f0 b   'cli2s'
cm12li d1 f0  'cap_m12li'

.ends xcmvpp11p5x11p7_lim5shield


* 3-terminal Vertical Parallel Plate Capacitor /w M1-M4 fingers and No Shield (for S8P ONLY)
* Fixed layout is here:
* //depot/icm/proj/s8rf2/dev/opus/s8rf2/s8rf2_xcmvpp11p5x11p7_m1m4

.subckt xcmvpp11p5x11p7_m1m4 c0 c1 b mf=1 presim_flag=0
.param
+ctot_a   =  '132.2280e-15*xcmvpp11p5x11p7_lim5shield_cor' 
+c02s     =  '(4.33 + presim_flag*0.54)*1e-15*cli2s_vpp'
+c12s     =  '1.87e-15*cli2s_vpp'
+rat_m4   =  0.1426
+rat_m3   =  0.1426
+rat_m2   =  0.3585
+rat_m1   =  0.3563
+cap_m4   =  'rat_m4*ctot_a' 
+cap_m3   =  'rat_m3*ctot_a' 
+cap_m2   =  'rat_m2*ctot_a' 
+cap_m1   =  'rat_m1*ctot_a' 

+lm1      =  5.215
+lm2      =  5.095
+lm3      =  5.050
+lm4      =  4.910
+wm1      =  0.140
+wm2      =  0.140
+wm3      =  0.300 
+wm4      =  0.300
+nfm1     =  72      
+nfm2     =  72       
+nfm3     =  34
+nfm4     =  34
+nvia3_c0  = 103
+nvia3_c1  = 49
+nvia2_c0  = 104
+nvia2_c1  = 49
+nvia_c0  =  124      
+nvia_c1  =  62       

rsm4  a0 a2   'rm4*lm4/wm4*(1/3)*(1/nfm4)'
cm4   a2 a1   'cap_m4'

rvia3_0 a0 b0   'rcvia3/nvia3_c0'
rvia3_1 a1 b1   'rcvia3/nvia3_c1'

rsm3   b0 b2   'rm3*lm3/wm3*(1/3)*(1/nfm3)'
cm3    b2 b1   'cap_m3'

rvia2_0 b0 c0   'rcvia2/nvia2_c0'
rvia2_1 b1 c1   'rcvia2/nvia2_c1'

rsm2   c0 c2   'rm2*lm2/wm2*(1/3)*(1/nfm2)'
cm2    c2 c1   'cap_m2'

rvia_0 c0 d0   'rcvia/nvia_c0'
rvia_1 c1 d1   'rcvia/nvia_c1'

rsm1   d0 d2   'rm1*lm1/wm1*(1/3)*(1/nfm1)'
cm1    d2 d1   'cap_m1'

c0_sub  d0 b   'c02s'
c1_sub  d1 b   'c12s'

.ends xcmvpp11p5x11p7_m1m4


* 4-terminal Vertical Parallel Plate Capacitor /w M1-M4 fingers and M5 Shield (for S8P ONLY)
* Fixed layout is here:
* //depot/icm/proj/s8rf2/dev/opus/s8rf2/s8rf2_xcmvpp11p5x11p7_m1m4m5shield

.subckt xcmvpp11p5x11p7_m1m4m5shield c0 c1 b m5 mf=1 presim_flag=0
.param
+ctot_a   =  '124.5520e-15*xcmvpp11p5x11p7_lim5shield_cor' 
+cm5_c0   =  '(5.04 + presim_flag*1.26)*1e-15*c0m5m4_vpp'
+cm5_c1   =  '3.88e-15*c1m5m4_vpp'
+c02s     =  '(3.69 + presim_flag*0.54)*1e-15*cli2s_vpp'
+c12s     =  '1.66e-15*cli2s_vpp'
+rat_m4   =  0.1426
+rat_m3   =  0.1426
+rat_m2   =  0.3585
+rat_m1   =  0.3563
+cap_m4   =  'rat_m4*ctot_a' 
+cap_m3   =  'rat_m3*ctot_a' 
+cap_m2   =  'rat_m2*ctot_a' 
+cap_m1   =  'rat_m1*ctot_a' 

+lm1      =  5.215
+lm2      =  5.095
+lm3      =  5.050
+lm4      =  4.910
+wm1      =  0.140
+wm2      =  0.140
+wm3      =  0.300 
+wm4      =  0.300
+nfm1     =  72      
+nfm2     =  72       
+nfm3     =  34
+nfm4     =  34
+nvia3_c0  = 103
+nvia3_c1  = 49
+nvia2_c0  = 104
+nvia2_c1  = 49
+nvia_c0  =  124      
+nvia_c1  =  62       

cm5_0  m5 a0   'cm5_c0'
cm5_1  m5 a1   'cm5_c1'

rsm4  a0 a2   'rm4*lm4/wm4*(1/3)*(1/nfm4)'
cm4   a2 a1   'cap_m4'

rvia3_0 a0 b0   'rcvia3/nvia3_c0'
rvia3_1 a1 b1   'rcvia3/nvia3_c1'

rsm3   b0 b2   'rm3*lm3/wm3*(1/3)*(1/nfm3)'
cm3    b2 b1   'cap_m3'

rvia2_0 b0 c0   'rcvia2/nvia2_c0'
rvia2_1 b1 c1   'rcvia2/nvia2_c1'

rsm2   c0 c2   'rm2*lm2/wm2*(1/3)*(1/nfm2)'
cm2    c2 c1   'cap_m2'

rvia_0 c0 d0   'rcvia/nvia_c0'