**
.model  pnppar  pnp  level = 1
**************************************************************
*               GENERAL PARAMETERS 
**************************************************************
+tref    = 30            
**************************************************************
*               CAPACITANCE PARAMETERS 
**************************************************************
+cjc     = 6.255e-015      cje     = 6.113e-016      cjs     = 0             
+fc      = 0.5             mjc     = 0.24            mje     = 0.3             mjs     = 0.24          
+vjc     = 0.54            vje     = 0.74            vjs     = 0.54            xcjc    = 1             
+ptf     = 0               tf      = 6.15385e-010    tr      = 5e-008          vtf     = 1e-12         
+xtf     = 0             
**************************************************************
*               Noise PARAMETERS 
**************************************************************
+af      = 1.60722         kf      = 4.9435066E-11
**************************************************************
*               DC PARAMETERS 
**************************************************************
+is      = '1.5075e-018*1.00*dkispp' dev/gauss='1.5075e-018*1.00*dkispp*0.01662/sqrt(E(*,m))'     rb      = 316.21          re      = 219             irb     = 0.027411      
+rc      = 531             rbm     = 243.58          bf      = '19.35*dkbfpp' dev/gauss='19.35*dkbfpp*0.05537/sqrt(E(*,m))'          nf      = '1.028*dknfpp'         
+vaf     = 152.06          ikf     = 3.3057e-005     ise     = 9.4936e-017     ne      = 1.6444        
+ns      = 1               br      = 0.2675          iss     = 0               nr      = 1             
+var     = 4.3             ikr     = 0.00043         nkf     = 0.5             isc     = 1.2e-015      
+nc      = 1.003         
**************************************************************
*               TEMPERATURE PARAMETERS 
**************************************************************
+xtb     = 2.2132          xti     = 1.1          eg      = 1.2          tikf1   = -0.0037823    
+tnf1	 = 1.972e-006	   tnf2    = -8.8e-007
**************************************************************
*               QUASI 
**************************************************************
**
.model  pnppar5x  pnp  level = 1
**************************************************************
*               GENERAL PARAMETERS 
**************************************************************
+tref    = 30  subs=1          
**************************************************************
*               CAPACITANCE PARAMETERS 
**************************************************************
+cjc     = '9.155e-17*5.17*5.17*nwdiode_ajunction_mult+5.822e-16*4*5.17*nwdiode_pjunction_mult'      cje     = '7.4079e-16*3.4*3.4*pshort_ajunction_mult+9.88e-17*4*3.4*pshort_pjunction_mult'      cjs     = 0             
+fc      = 0.5             mjc     = 0.24            mje     = 0.3             mjs     = 0.24          
+vjc     = 0.54            vje     = 0.74            vjs     = 0.54            xcjc    = 1             
+ptf     = 0               tf      = 6.15385e-010    tr      = 5e-008          vtf     = 1e-012        
+xtf     = 0             
**************************************************************
*               Noise PARAMETERS 
**************************************************************
+af      = 1.30180         kf      = 4.9435066e-011
**************************************************************
*               DC PARAMETERS 
**************************************************************
+is      = '7.1190e-018*dkispp5x' dev/gauss='7.1190e-018*1.00*dkispp5x*0.01662*0.13/sqrt(E(*,m))'     rb      = 73.32              re      = 5.3848          irb     = 0.0002      
+rc      = 100.0          rbm     = 25.19              bf      = '16.603*dkbfpp5x' dev/gauss='16.603*dkbfpp5x*0.05537*0.45/sqrt(E(*,m))'          nf      = '1.000*dknfpp5x'         
+vaf     = 111.6          ikf     = 0.00038589      ise     = '1.0310e-015*dkisepp5x'     ne      = 1.64        
+ns      = 1               br      = 0.2675          iss     = 0               nr      = 1             
+var     = 4.3             ikr     = 0.0043          nkf     = 0.426             isc     = 1.9855e-015    
+nc      = 1.000         
**************************************************************
*               TEMPERATURE PARAMETERS 
**************************************************************
+xtb     = 1.692           xti     = 5.0 dev/gauss='5*0.06/sqrt(E(*,m))'            eg      = 1.125             tnf1    = 5.972e-006
+tikf1   = -0.002456      tnf2    = -3.0e-008
**************************************************************
*               QUASI 
**************************************************************
