// File: and3x1_pcell.spi.AND3X1_PCELL.pxi
// Created: Tue Oct 15 15:54:33 2024
// 
simulator lang=spectre
x_PM_AND3X1_PCELL\%noxref_1 ( N_noxref_1_c_4_p N_noxref_1_c_31_p \
 N_noxref_1_c_1_p N_noxref_1_c_5_p N_noxref_1_c_6_p N_noxref_1_c_73_p \
 N_noxref_1_c_7_p N_noxref_1_c_22_p N_noxref_1_c_2_p N_noxref_1_c_3_p \
 N_noxref_1_M0_noxref_d N_noxref_1_M3_noxref_s )  PM_AND3X1_PCELL\%noxref_1
x_PM_AND3X1_PCELL\%noxref_2 ( N_noxref_2_c_92_p N_noxref_2_c_89_n \
 N_noxref_2_c_97_p N_noxref_2_c_98_p N_noxref_2_c_104_p N_noxref_2_c_108_p \
 N_noxref_2_c_115_p N_noxref_2_c_90_n N_noxref_2_c_91_n N_noxref_2_M4_noxref_s \
 N_noxref_2_M5_noxref_d N_noxref_2_M7_noxref_d N_noxref_2_M9_noxref_d \
 N_noxref_2_M10_noxref_s N_noxref_2_M11_noxref_d )  PM_AND3X1_PCELL\%noxref_2
x_PM_AND3X1_PCELL\%noxref_3 ( N_noxref_3_c_172_n N_noxref_3_c_178_n \
 N_noxref_3_c_202_n N_noxref_3_c_206_n N_noxref_3_c_208_n N_noxref_3_c_212_n \
 N_noxref_3_c_179_n N_noxref_3_c_285_p N_noxref_3_c_216_n N_noxref_3_c_181_n \
 N_noxref_3_c_257_p N_noxref_3_c_263_p N_noxref_3_M3_noxref_g \
 N_noxref_3_M10_noxref_g N_noxref_3_M11_noxref_g N_noxref_3_c_186_n \
 N_noxref_3_c_301_p N_noxref_3_c_302_p N_noxref_3_c_188_n N_noxref_3_c_226_n \
 N_noxref_3_c_227_n N_noxref_3_c_189_n N_noxref_3_c_289_p N_noxref_3_c_190_n \
 N_noxref_3_c_192_n N_noxref_3_c_193_n N_noxref_3_M2_noxref_d \
 N_noxref_3_M4_noxref_d N_noxref_3_M6_noxref_d N_noxref_3_M8_noxref_d )  \
 PM_AND3X1_PCELL\%noxref_3
x_PM_AND3X1_PCELL\%noxref_4 ( N_noxref_4_c_313_n N_noxref_4_M0_noxref_g \
 N_noxref_4_M4_noxref_g N_noxref_4_M5_noxref_g N_noxref_4_c_314_n \
 N_noxref_4_c_316_n N_noxref_4_c_317_n N_noxref_4_c_318_n N_noxref_4_c_319_n \
 N_noxref_4_c_320_n N_noxref_4_c_321_n N_noxref_4_c_323_n N_noxref_4_c_336_n \
 N_noxref_4_c_331_n )  PM_AND3X1_PCELL\%noxref_4
x_PM_AND3X1_PCELL\%noxref_5 ( N_noxref_5_c_368_n N_noxref_5_M1_noxref_g \
 N_noxref_5_M6_noxref_g N_noxref_5_M7_noxref_g N_noxref_5_c_390_n \
 N_noxref_5_c_393_n N_noxref_5_c_426_p N_noxref_5_c_433_p N_noxref_5_c_395_n \
 N_noxref_5_c_396_n N_noxref_5_c_397_n N_noxref_5_c_398_n N_noxref_5_c_381_n \
 N_noxref_5_c_382_n )  PM_AND3X1_PCELL\%noxref_5
x_PM_AND3X1_PCELL\%noxref_6 ( N_noxref_6_c_457_n N_noxref_6_c_438_n \
 N_noxref_6_c_442_n N_noxref_6_c_446_n N_noxref_6_c_469_n \
 N_noxref_6_M0_noxref_s )  PM_AND3X1_PCELL\%noxref_6
x_PM_AND3X1_PCELL\%noxref_7 ( N_noxref_7_c_483_n N_noxref_7_M2_noxref_g \
 N_noxref_7_M8_noxref_g N_noxref_7_M9_noxref_g N_noxref_7_c_497_n \
 N_noxref_7_c_498_n N_noxref_7_c_499_n N_noxref_7_c_500_n N_noxref_7_c_501_n \
 N_noxref_7_c_503_n N_noxref_7_c_504_n N_noxref_7_c_506_n N_noxref_7_c_507_n \
 N_noxref_7_c_509_n )  PM_AND3X1_PCELL\%noxref_7
x_PM_AND3X1_PCELL\%noxref_8 ( N_noxref_8_c_537_n N_noxref_8_c_540_n \
 N_noxref_8_c_544_n N_noxref_8_c_547_n N_noxref_8_c_558_n \
 N_noxref_8_M1_noxref_d N_noxref_8_M2_noxref_s )  PM_AND3X1_PCELL\%noxref_8
x_PM_AND3X1_PCELL\%noxref_9 ( N_noxref_9_c_591_n N_noxref_9_c_612_n \
 N_noxref_9_c_600_n N_noxref_9_c_603_n N_noxref_9_c_594_n \
 N_noxref_9_M3_noxref_d N_noxref_9_M10_noxref_d )  PM_AND3X1_PCELL\%noxref_9
cc_1 ( N_noxref_1_c_1_p N_noxref_2_c_89_n ) capacitor c=0.00989031f //x=0.74 \
 //y=0 //x2=0.74 //y2=7.4
cc_2 ( N_noxref_1_c_2_p N_noxref_2_c_90_n ) capacitor c=0.00855708f //x=4.81 \
 //y=0 //x2=4.81 //y2=7.4
cc_3 ( N_noxref_1_c_3_p N_noxref_2_c_91_n ) capacitor c=0.00989031f //x=6.41 \
 //y=0 //x2=6.29 //y2=7.4
cc_4 ( N_noxref_1_c_4_p N_noxref_3_c_172_n ) capacitor c=0.0116268f //x=6.29 \
 //y=0 //x2=5.435 //y2=3.33
cc_5 ( N_noxref_1_c_5_p N_noxref_3_c_172_n ) capacitor c=0.0016229f //x=4.64 \
 //y=0 //x2=5.435 //y2=3.33
cc_6 ( N_noxref_1_c_6_p N_noxref_3_c_172_n ) capacitor c=0.00110325f //x=5.355 \
 //y=0 //x2=5.435 //y2=3.33
cc_7 ( N_noxref_1_c_7_p N_noxref_3_c_172_n ) capacitor c=2.76195e-19 //x=5.84 \
 //y=0.535 //x2=5.435 //y2=3.33
cc_8 ( N_noxref_1_c_2_p N_noxref_3_c_172_n ) capacitor c=0.00820844f //x=4.81 \
 //y=0 //x2=5.435 //y2=3.33
cc_9 ( N_noxref_1_M3_noxref_s N_noxref_3_c_172_n ) capacitor c=0.00164577f \
 //x=5.305 //y=0.37 //x2=5.435 //y2=3.33
cc_10 ( N_noxref_1_c_4_p N_noxref_3_c_178_n ) capacitor c=0.00177092f //x=6.29 \
 //y=0 //x2=4.185 //y2=3.33
cc_11 ( N_noxref_1_c_2_p N_noxref_3_c_179_n ) capacitor c=0.0458509f //x=4.81 \
 //y=0 //x2=3.985 //y2=1.665
cc_12 ( N_noxref_1_M3_noxref_s N_noxref_3_c_179_n ) capacitor c=3.19788e-19 \
 //x=5.305 //y=0.37 //x2=3.985 //y2=1.665
cc_13 ( N_noxref_1_c_4_p N_noxref_3_c_181_n ) capacitor c=0.00184963f //x=6.29 \
 //y=0 //x2=5.55 //y2=2.085
cc_14 ( N_noxref_1_c_7_p N_noxref_3_c_181_n ) capacitor c=7.87839e-19 //x=5.84 \
 //y=0.535 //x2=5.55 //y2=2.085
cc_15 ( N_noxref_1_c_2_p N_noxref_3_c_181_n ) capacitor c=0.029021f //x=4.81 \
 //y=0 //x2=5.55 //y2=2.085
cc_16 ( N_noxref_1_c_3_p N_noxref_3_c_181_n ) capacitor c=0.00118981f //x=6.41 \
 //y=0 //x2=5.55 //y2=2.085
cc_17 ( N_noxref_1_M3_noxref_s N_noxref_3_c_181_n ) capacitor c=0.0108503f \
 //x=5.305 //y=0.37 //x2=5.55 //y2=2.085
cc_18 ( N_noxref_1_c_7_p N_noxref_3_c_186_n ) capacitor c=0.0121757f //x=5.84 \
 //y=0.535 //x2=5.66 //y2=0.91
cc_19 ( N_noxref_1_M3_noxref_s N_noxref_3_c_186_n ) capacitor c=0.0318107f \
 //x=5.305 //y=0.37 //x2=5.66 //y2=0.91
cc_20 ( N_noxref_1_c_2_p N_noxref_3_c_188_n ) capacitor c=0.00561485f //x=4.81 \
 //y=0 //x2=5.66 //y2=1.92
cc_21 ( N_noxref_1_M3_noxref_s N_noxref_3_c_189_n ) capacitor c=0.00483274f \
 //x=5.305 //y=0.37 //x2=6.035 //y2=0.755
cc_22 ( N_noxref_1_c_22_p N_noxref_3_c_190_n ) capacitor c=0.0118602f \
 //x=6.325 //y=0.535 //x2=6.19 //y2=0.91
cc_23 ( N_noxref_1_M3_noxref_s N_noxref_3_c_190_n ) capacitor c=0.0143355f \
 //x=5.305 //y=0.37 //x2=6.19 //y2=0.91
cc_24 ( N_noxref_1_M3_noxref_s N_noxref_3_c_192_n ) capacitor c=0.0074042f \
 //x=5.305 //y=0.37 //x2=6.19 //y2=1.255
cc_25 ( N_noxref_1_c_7_p N_noxref_3_c_193_n ) capacitor c=2.1838e-19 //x=5.84 \
 //y=0.535 //x2=5.55 //y2=2.085
cc_26 ( N_noxref_1_c_2_p N_noxref_3_c_193_n ) capacitor c=0.0108179f //x=4.81 \
 //y=0 //x2=5.55 //y2=2.085
cc_27 ( N_noxref_1_M3_noxref_s N_noxref_3_c_193_n ) capacitor c=0.00655738f \
 //x=5.305 //y=0.37 //x2=5.55 //y2=2.085
cc_28 ( N_noxref_1_c_2_p N_noxref_3_M2_noxref_d ) capacitor c=0.00591582f \
 //x=4.81 //y=0 //x2=3.395 //y2=0.915
cc_29 ( N_noxref_1_M3_noxref_s N_noxref_3_M2_noxref_d ) capacitor \
 c=2.07235e-19 //x=5.305 //y=0.37 //x2=3.395 //y2=0.915
cc_30 ( N_noxref_1_c_1_p N_noxref_4_c_313_n ) capacitor c=0.0180363f //x=0.74 \
 //y=0 //x2=1.11 //y2=2.08
cc_31 ( N_noxref_1_c_31_p N_noxref_4_c_314_n ) capacitor c=0.00132755f \
 //x=0.99 //y=0 //x2=0.81 //y2=0.875
cc_32 ( N_noxref_1_M0_noxref_d N_noxref_4_c_314_n ) capacitor c=0.00211996f \
 //x=0.885 //y=0.875 //x2=0.81 //y2=0.875
cc_33 ( N_noxref_1_M0_noxref_d N_noxref_4_c_316_n ) capacitor c=0.00255985f \
 //x=0.885 //y=0.875 //x2=0.81 //y2=1.22
cc_34 ( N_noxref_1_c_1_p N_noxref_4_c_317_n ) capacitor c=0.00295461f //x=0.74 \
 //y=0 //x2=0.81 //y2=1.53
cc_35 ( N_noxref_1_c_1_p N_noxref_4_c_318_n ) capacitor c=0.0134214f //x=0.74 \
 //y=0 //x2=0.81 //y2=1.915
cc_36 ( N_noxref_1_M0_noxref_d N_noxref_4_c_319_n ) capacitor c=0.0131341f \
 //x=0.885 //y=0.875 //x2=1.185 //y2=0.72
cc_37 ( N_noxref_1_M0_noxref_d N_noxref_4_c_320_n ) capacitor c=0.00193146f \
 //x=0.885 //y=0.875 //x2=1.185 //y2=1.375
cc_38 ( N_noxref_1_c_5_p N_noxref_4_c_321_n ) capacitor c=0.00129018f //x=4.64 \
 //y=0 //x2=1.34 //y2=0.875
cc_39 ( N_noxref_1_M0_noxref_d N_noxref_4_c_321_n ) capacitor c=0.00257848f \
 //x=0.885 //y=0.875 //x2=1.34 //y2=0.875
cc_40 ( N_noxref_1_M0_noxref_d N_noxref_4_c_323_n ) capacitor c=0.00255985f \
 //x=0.885 //y=0.875 //x2=1.34 //y2=1.22
cc_41 ( N_noxref_1_c_1_p N_noxref_5_c_368_n ) capacitor c=7.64246e-19 //x=0.74 \
 //y=0 //x2=2.22 //y2=2.08
cc_42 ( N_noxref_1_c_4_p N_noxref_6_c_438_n ) capacitor c=0.00710541f //x=6.29 \
 //y=0 //x2=1.475 //y2=1.59
cc_43 ( N_noxref_1_c_31_p N_noxref_6_c_438_n ) capacitor c=0.00110021f \
 //x=0.99 //y=0 //x2=1.475 //y2=1.59
cc_44 ( N_noxref_1_c_5_p N_noxref_6_c_438_n ) capacitor c=0.00179185f //x=4.64 \
 //y=0 //x2=1.475 //y2=1.59
cc_45 ( N_noxref_1_M0_noxref_d N_noxref_6_c_438_n ) capacitor c=0.00900091f \
 //x=0.885 //y=0.875 //x2=1.475 //y2=1.59
cc_46 ( N_noxref_1_c_4_p N_noxref_6_c_442_n ) capacitor c=0.00709506f //x=6.29 \
 //y=0 //x2=1.56 //y2=0.625
cc_47 ( N_noxref_1_c_5_p N_noxref_6_c_442_n ) capacitor c=0.0140218f //x=4.64 \
 //y=0 //x2=1.56 //y2=0.625
cc_48 ( N_noxref_1_c_3_p N_noxref_6_c_442_n ) capacitor c=0.00138062f //x=6.41 \
 //y=0 //x2=1.56 //y2=0.625
cc_49 ( N_noxref_1_M0_noxref_d N_noxref_6_c_442_n ) capacitor c=0.033954f \
 //x=0.885 //y=0.875 //x2=1.56 //y2=0.625
cc_50 ( N_noxref_1_c_4_p N_noxref_6_c_446_n ) capacitor c=0.0192401f //x=6.29 \
 //y=0 //x2=2.445 //y2=0.54
cc_51 ( N_noxref_1_c_5_p N_noxref_6_c_446_n ) capacitor c=0.0356078f //x=4.64 \
 //y=0 //x2=2.445 //y2=0.54
cc_52 ( N_noxref_1_c_3_p N_noxref_6_c_446_n ) capacitor c=0.00264707f //x=6.41 \
 //y=0 //x2=2.445 //y2=0.54
cc_53 ( N_noxref_1_c_4_p N_noxref_6_M0_noxref_s ) capacitor c=0.0139221f \
 //x=6.29 //y=0 //x2=0.455 //y2=0.375
cc_54 ( N_noxref_1_c_31_p N_noxref_6_M0_noxref_s ) capacitor c=0.0140218f \
 //x=0.99 //y=0 //x2=0.455 //y2=0.375
cc_55 ( N_noxref_1_c_1_p N_noxref_6_M0_noxref_s ) capacitor c=0.0712607f \
 //x=0.74 //y=0 //x2=0.455 //y2=0.375
cc_56 ( N_noxref_1_c_5_p N_noxref_6_M0_noxref_s ) capacitor c=0.0131422f \
 //x=4.64 //y=0 //x2=0.455 //y2=0.375
cc_57 ( N_noxref_1_c_2_p N_noxref_6_M0_noxref_s ) capacitor c=3.31601e-19 \
 //x=4.81 //y=0 //x2=0.455 //y2=0.375
cc_58 ( N_noxref_1_c_3_p N_noxref_6_M0_noxref_s ) capacitor c=0.00272322f \
 //x=6.41 //y=0 //x2=0.455 //y2=0.375
cc_59 ( N_noxref_1_M0_noxref_d N_noxref_6_M0_noxref_s ) capacitor c=0.033718f \
 //x=0.885 //y=0.875 //x2=0.455 //y2=0.375
cc_60 ( N_noxref_1_c_2_p N_noxref_7_c_483_n ) capacitor c=9.53263e-19 //x=4.81 \
 //y=0 //x2=3.33 //y2=2.08
cc_61 ( N_noxref_1_c_4_p N_noxref_8_c_537_n ) capacitor c=0.00789826f //x=6.29 \
 //y=0 //x2=3.015 //y2=0.995
cc_62 ( N_noxref_1_c_5_p N_noxref_8_c_537_n ) capacitor c=0.00829979f //x=4.64 \
 //y=0 //x2=3.015 //y2=0.995
cc_63 ( N_noxref_1_c_3_p N_noxref_8_c_537_n ) capacitor c=3.53825e-19 //x=6.41 \
 //y=0 //x2=3.015 //y2=0.995
cc_64 ( N_noxref_1_c_4_p N_noxref_8_c_540_n ) capacitor c=0.00709506f //x=6.29 \
 //y=0 //x2=3.1 //y2=0.625
cc_65 ( N_noxref_1_c_5_p N_noxref_8_c_540_n ) capacitor c=0.0140218f //x=4.64 \
 //y=0 //x2=3.1 //y2=0.625
cc_66 ( N_noxref_1_c_3_p N_noxref_8_c_540_n ) capacitor c=0.00138062f //x=6.41 \
 //y=0 //x2=3.1 //y2=0.625
cc_67 ( N_noxref_1_M0_noxref_d N_noxref_8_c_540_n ) capacitor c=6.21394e-19 \
 //x=0.885 //y=0.875 //x2=3.1 //y2=0.625
cc_68 ( N_noxref_1_c_4_p N_noxref_8_c_544_n ) capacitor c=0.018306f //x=6.29 \
 //y=0 //x2=3.985 //y2=0.54
cc_69 ( N_noxref_1_c_5_p N_noxref_8_c_544_n ) capacitor c=0.0362762f //x=4.64 \
 //y=0 //x2=3.985 //y2=0.54
cc_70 ( N_noxref_1_c_3_p N_noxref_8_c_544_n ) capacitor c=0.00282763f //x=6.41 \
 //y=0 //x2=3.985 //y2=0.54
cc_71 ( N_noxref_1_c_4_p N_noxref_8_c_547_n ) capacitor c=0.00286759f //x=6.29 \
 //y=0 //x2=4.07 //y2=0.625
cc_72 ( N_noxref_1_c_5_p N_noxref_8_c_547_n ) capacitor c=0.0142605f //x=4.64 \
 //y=0 //x2=4.07 //y2=0.625
cc_73 ( N_noxref_1_c_73_p N_noxref_8_c_547_n ) capacitor c=9.29926e-19 \
 //x=5.44 //y=0.45 //x2=4.07 //y2=0.625
cc_74 ( N_noxref_1_c_2_p N_noxref_8_c_547_n ) capacitor c=0.0404137f //x=4.81 \
 //y=0 //x2=4.07 //y2=0.625
cc_75 ( N_noxref_1_c_3_p N_noxref_8_c_547_n ) capacitor c=0.0013725f //x=6.41 \
 //y=0 //x2=4.07 //y2=0.625
cc_76 ( N_noxref_1_M0_noxref_d N_noxref_8_M1_noxref_d ) capacitor \
 c=0.00162435f //x=0.885 //y=0.875 //x2=1.86 //y2=0.91
cc_77 ( N_noxref_1_c_1_p N_noxref_8_M2_noxref_s ) capacitor c=8.16352e-19 \
 //x=0.74 //y=0 //x2=2.965 //y2=0.375
cc_78 ( N_noxref_1_c_2_p N_noxref_8_M2_noxref_s ) capacitor c=0.00183149f \
 //x=4.81 //y=0 //x2=2.965 //y2=0.375
cc_79 ( N_noxref_1_M3_noxref_s N_noxref_8_M2_noxref_s ) capacitor \
 c=9.29926e-19 //x=5.305 //y=0.37 //x2=2.965 //y2=0.375
cc_80 ( N_noxref_1_c_4_p N_noxref_9_c_591_n ) capacitor c=0.00180637f //x=6.29 \
 //y=0 //x2=6.205 //y2=2.08
cc_81 ( N_noxref_1_c_3_p N_noxref_9_c_591_n ) capacitor c=0.0301661f //x=6.41 \
 //y=0 //x2=6.205 //y2=2.08
cc_82 ( N_noxref_1_M3_noxref_s N_noxref_9_c_591_n ) capacitor c=0.00999304f \
 //x=5.305 //y=0.37 //x2=6.205 //y2=2.08
cc_83 ( N_noxref_1_c_2_p N_noxref_9_c_594_n ) capacitor c=8.10282e-19 //x=4.81 \
 //y=0 //x2=6.29 //y2=4.495
cc_84 ( N_noxref_1_c_4_p N_noxref_9_M3_noxref_d ) capacitor c=0.00194883f \
 //x=6.29 //y=0 //x2=5.735 //y2=0.91
cc_85 ( N_noxref_1_c_7_p N_noxref_9_M3_noxref_d ) capacitor c=0.0146043f \
 //x=5.84 //y=0.535 //x2=5.735 //y2=0.91
cc_86 ( N_noxref_1_c_2_p N_noxref_9_M3_noxref_d ) capacitor c=0.00924905f \
 //x=4.81 //y=0 //x2=5.735 //y2=0.91
cc_87 ( N_noxref_1_c_3_p N_noxref_9_M3_noxref_d ) capacitor c=0.00973758f \
 //x=6.41 //y=0 //x2=5.735 //y2=0.91
cc_88 ( N_noxref_1_M3_noxref_s N_noxref_9_M3_noxref_d ) capacitor c=0.076995f \
 //x=5.305 //y=0.37 //x2=5.735 //y2=0.91
cc_89 ( N_noxref_2_c_92_p N_noxref_3_c_172_n ) capacitor c=0.00920603f \
 //x=6.29 //y=7.4 //x2=5.435 //y2=3.33
cc_90 ( N_noxref_2_c_90_n N_noxref_3_c_172_n ) capacitor c=0.0069465f //x=4.81 \
 //y=7.4 //x2=5.435 //y2=3.33
cc_91 ( N_noxref_2_M10_noxref_s N_noxref_3_c_172_n ) capacitor c=0.00106085f \
 //x=5.35 //y=5.02 //x2=5.435 //y2=3.33
cc_92 ( N_noxref_2_c_92_p N_noxref_3_c_178_n ) capacitor c=0.00163378f \
 //x=6.29 //y=7.4 //x2=4.185 //y2=3.33
cc_93 ( N_noxref_2_c_92_p N_noxref_3_c_202_n ) capacitor c=0.0059154f //x=6.29 \
 //y=7.4 //x2=2.325 //y2=5.155
cc_94 ( N_noxref_2_c_97_p N_noxref_3_c_202_n ) capacitor c=4.18223e-19 \
 //x=1.885 //y=7.4 //x2=2.325 //y2=5.155
cc_95 ( N_noxref_2_c_98_p N_noxref_3_c_202_n ) capacitor c=4.18223e-19 \
 //x=2.765 //y=7.4 //x2=2.325 //y2=5.155
cc_96 ( N_noxref_2_M5_noxref_d N_noxref_3_c_202_n ) capacitor c=0.0119114f \
 //x=1.825 //y=5.02 //x2=2.325 //y2=5.155
cc_97 ( N_noxref_2_c_89_n N_noxref_3_c_206_n ) capacitor c=0.00880189f \
 //x=0.74 //y=7.4 //x2=1.615 //y2=5.155
cc_98 ( N_noxref_2_M4_noxref_s N_noxref_3_c_206_n ) capacitor c=0.0831083f \
 //x=0.955 //y=5.02 //x2=1.615 //y2=5.155
cc_99 ( N_noxref_2_c_92_p N_noxref_3_c_208_n ) capacitor c=0.00593264f \
 //x=6.29 //y=7.4 //x2=3.205 //y2=5.155
cc_100 ( N_noxref_2_c_98_p N_noxref_3_c_208_n ) capacitor c=4.18223e-19 \
 //x=2.765 //y=7.4 //x2=3.205 //y2=5.155
cc_101 ( N_noxref_2_c_104_p N_noxref_3_c_208_n ) capacitor c=4.18223e-19 \
 //x=3.645 //y=7.4 //x2=3.205 //y2=5.155
cc_102 ( N_noxref_2_M7_noxref_d N_noxref_3_c_208_n ) capacitor c=0.0119114f \
 //x=2.705 //y=5.02 //x2=3.205 //y2=5.155
cc_103 ( N_noxref_2_c_92_p N_noxref_3_c_212_n ) capacitor c=0.00592985f \
 //x=6.29 //y=7.4 //x2=3.985 //y2=5.155
cc_104 ( N_noxref_2_c_104_p N_noxref_3_c_212_n ) capacitor c=6.98646e-19 \
 //x=3.645 //y=7.4 //x2=3.985 //y2=5.155
cc_105 ( N_noxref_2_c_108_p N_noxref_3_c_212_n ) capacitor c=0.00179956f \
 //x=4.64 //y=7.4 //x2=3.985 //y2=5.155
cc_106 ( N_noxref_2_M9_noxref_d N_noxref_3_c_212_n ) capacitor c=0.0119114f \
 //x=3.585 //y=5.02 //x2=3.985 //y2=5.155
cc_107 ( N_noxref_2_c_90_n N_noxref_3_c_216_n ) capacitor c=0.0456169f \
 //x=4.81 //y=7.4 //x2=4.07 //y2=3.33
cc_108 ( N_noxref_2_c_92_p N_noxref_3_c_181_n ) capacitor c=0.00160122f \
 //x=6.29 //y=7.4 //x2=5.55 //y2=2.085
cc_109 ( N_noxref_2_c_90_n N_noxref_3_c_181_n ) capacitor c=0.0272885f \
 //x=4.81 //y=7.4 //x2=5.55 //y2=2.085
cc_110 ( N_noxref_2_c_91_n N_noxref_3_c_181_n ) capacitor c=0.00144809f \
 //x=6.29 //y=7.4 //x2=5.55 //y2=2.085
cc_111 ( N_noxref_2_M10_noxref_s N_noxref_3_c_181_n ) capacitor c=0.00971593f \
 //x=5.35 //y=5.02 //x2=5.55 //y2=2.085
cc_112 ( N_noxref_2_c_115_p N_noxref_3_M10_noxref_g ) capacitor c=0.00748034f \
 //x=6.28 //y=7.4 //x2=5.705 //y2=6.02
cc_113 ( N_noxref_2_c_90_n N_noxref_3_M10_noxref_g ) capacitor c=0.00935943f \
 //x=4.81 //y=7.4 //x2=5.705 //y2=6.02
cc_114 ( N_noxref_2_M10_noxref_s N_noxref_3_M10_noxref_g ) capacitor \
 c=0.0528676f //x=5.35 //y=5.02 //x2=5.705 //y2=6.02
cc_115 ( N_noxref_2_c_115_p N_noxref_3_M11_noxref_g ) capacitor c=0.00697478f \
 //x=6.28 //y=7.4 //x2=6.145 //y2=6.02
cc_116 ( N_noxref_2_M11_noxref_d N_noxref_3_M11_noxref_g ) capacitor \
 c=0.0528676f //x=6.22 //y=5.02 //x2=6.145 //y2=6.02
cc_117 ( N_noxref_2_c_91_n N_noxref_3_c_226_n ) capacitor c=0.0287802f \
 //x=6.29 //y=7.4 //x2=6.07 //y2=4.79
cc_118 ( N_noxref_2_c_90_n N_noxref_3_c_227_n ) capacitor c=0.011132f //x=4.81 \
 //y=7.4 //x2=5.78 //y2=4.79
cc_119 ( N_noxref_2_M10_noxref_s N_noxref_3_c_227_n ) capacitor c=0.00527247f \
 //x=5.35 //y=5.02 //x2=5.78 //y2=4.79
cc_120 ( N_noxref_2_c_92_p N_noxref_3_M4_noxref_d ) capacitor c=0.00706456f \
 //x=6.29 //y=7.4 //x2=1.385 //y2=5.02
cc_121 ( N_noxref_2_c_97_p N_noxref_3_M4_noxref_d ) capacitor c=0.0138437f \
 //x=1.885 //y=7.4 //x2=1.385 //y2=5.02
cc_122 ( N_noxref_2_c_91_n N_noxref_3_M4_noxref_d ) capacitor c=0.00135292f \
 //x=6.29 //y=7.4 //x2=1.385 //y2=5.02
cc_123 ( N_noxref_2_M5_noxref_d N_noxref_3_M4_noxref_d ) capacitor \
 c=0.0664752f //x=1.825 //y=5.02 //x2=1.385 //y2=5.02
cc_124 ( N_noxref_2_c_92_p N_noxref_3_M6_noxref_d ) capacitor c=0.00706456f \
 //x=6.29 //y=7.4 //x2=2.265 //y2=5.02
cc_125 ( N_noxref_2_c_98_p N_noxref_3_M6_noxref_d ) capacitor c=0.0138437f \
 //x=2.765 //y=7.4 //x2=2.265 //y2=5.02
cc_126 ( N_noxref_2_c_90_n N_noxref_3_M6_noxref_d ) capacitor c=4.9285e-19 \
 //x=4.81 //y=7.4 //x2=2.265 //y2=5.02
cc_127 ( N_noxref_2_c_91_n N_noxref_3_M6_noxref_d ) capacitor c=0.00135292f \
 //x=6.29 //y=7.4 //x2=2.265 //y2=5.02
cc_128 ( N_noxref_2_M4_noxref_s N_noxref_3_M6_noxref_d ) capacitor \
 c=0.00130656f //x=0.955 //y=5.02 //x2=2.265 //y2=5.02
cc_129 ( N_noxref_2_M5_noxref_d N_noxref_3_M6_noxref_d ) capacitor \
 c=0.0664752f //x=1.825 //y=5.02 //x2=2.265 //y2=5.02
cc_130 ( N_noxref_2_M7_noxref_d N_noxref_3_M6_noxref_d ) capacitor \
 c=0.0664752f //x=2.705 //y=5.02 //x2=2.265 //y2=5.02
cc_131 ( N_noxref_2_c_92_p N_noxref_3_M8_noxref_d ) capacitor c=0.00706456f \
 //x=6.29 //y=7.4 //x2=3.145 //y2=5.02
cc_132 ( N_noxref_2_c_104_p N_noxref_3_M8_noxref_d ) capacitor c=0.0137718f \
 //x=3.645 //y=7.4 //x2=3.145 //y2=5.02
cc_133 ( N_noxref_2_c_90_n N_noxref_3_M8_noxref_d ) capacitor c=0.00939849f \
 //x=4.81 //y=7.4 //x2=3.145 //y2=5.02
cc_134 ( N_noxref_2_c_91_n N_noxref_3_M8_noxref_d ) capacitor c=0.00135292f \
 //x=6.29 //y=7.4 //x2=3.145 //y2=5.02
cc_135 ( N_noxref_2_M7_noxref_d N_noxref_3_M8_noxref_d ) capacitor \
 c=0.0664752f //x=2.705 //y=5.02 //x2=3.145 //y2=5.02
cc_136 ( N_noxref_2_M9_noxref_d N_noxref_3_M8_noxref_d ) capacitor \
 c=0.0664752f //x=3.585 //y=5.02 //x2=3.145 //y2=5.02
cc_137 ( N_noxref_2_M10_noxref_s N_noxref_3_M8_noxref_d ) capacitor \
 c=5.22106e-19 //x=5.35 //y=5.02 //x2=3.145 //y2=5.02
cc_138 ( N_noxref_2_c_92_p N_noxref_4_c_313_n ) capacitor c=0.00112336f \
 //x=6.29 //y=7.4 //x2=1.11 //y2=2.08
cc_139 ( N_noxref_2_c_89_n N_noxref_4_c_313_n ) capacitor c=0.0168497f \
 //x=0.74 //y=7.4 //x2=1.11 //y2=2.08
cc_140 ( N_noxref_2_M4_noxref_s N_noxref_4_c_313_n ) capacitor c=0.0130213f \
 //x=0.955 //y=5.02 //x2=1.11 //y2=2.08
cc_141 ( N_noxref_2_c_97_p N_noxref_4_M4_noxref_g ) capacitor c=0.00749687f \
 //x=1.885 //y=7.4 //x2=1.31 //y2=6.02
cc_142 ( N_noxref_2_M4_noxref_s N_noxref_4_M4_noxref_g ) capacitor \
 c=0.0477201f //x=0.955 //y=5.02 //x2=1.31 //y2=6.02
cc_143 ( N_noxref_2_c_97_p N_noxref_4_M5_noxref_g ) capacitor c=0.00675175f \
 //x=1.885 //y=7.4 //x2=1.75 //y2=6.02
cc_144 ( N_noxref_2_M5_noxref_d N_noxref_4_M5_noxref_g ) capacitor c=0.015318f \
 //x=1.825 //y=5.02 //x2=1.75 //y2=6.02
cc_145 ( N_noxref_2_c_89_n N_noxref_4_c_331_n ) capacitor c=0.0076931f \
 //x=0.74 //y=7.4 //x2=1.385 //y2=4.79
cc_146 ( N_noxref_2_M4_noxref_s N_noxref_4_c_331_n ) capacitor c=0.00442959f \
 //x=0.955 //y=5.02 //x2=1.385 //y2=4.79
cc_147 ( N_noxref_2_c_92_p N_noxref_5_c_368_n ) capacitor c=2.41299e-19 \
 //x=6.29 //y=7.4 //x2=2.22 //y2=2.08
cc_148 ( N_noxref_2_c_89_n N_noxref_5_c_368_n ) capacitor c=7.34553e-19 \
 //x=0.74 //y=7.4 //x2=2.22 //y2=2.08
cc_149 ( N_noxref_2_c_98_p N_noxref_5_M6_noxref_g ) capacitor c=0.00676195f \
 //x=2.765 //y=7.4 //x2=2.19 //y2=6.02
cc_150 ( N_noxref_2_M5_noxref_d N_noxref_5_M6_noxref_g ) capacitor c=0.015318f \
 //x=1.825 //y=5.02 //x2=2.19 //y2=6.02
cc_151 ( N_noxref_2_c_98_p N_noxref_5_M7_noxref_g ) capacitor c=0.00675175f \
 //x=2.765 //y=7.4 //x2=2.63 //y2=6.02
cc_152 ( N_noxref_2_M7_noxref_d N_noxref_5_M7_noxref_g ) capacitor c=0.015318f \
 //x=2.705 //y=5.02 //x2=2.63 //y2=6.02
cc_153 ( N_noxref_2_c_90_n N_noxref_7_c_483_n ) capacitor c=8.81482e-19 \
 //x=4.81 //y=7.4 //x2=3.33 //y2=2.08
cc_154 ( N_noxref_2_c_104_p N_noxref_7_M8_noxref_g ) capacitor c=0.00675175f \
 //x=3.645 //y=7.4 //x2=3.07 //y2=6.02
cc_155 ( N_noxref_2_M7_noxref_d N_noxref_7_M8_noxref_g ) capacitor c=0.015318f \
 //x=2.705 //y=5.02 //x2=3.07 //y2=6.02
cc_156 ( N_noxref_2_c_104_p N_noxref_7_M9_noxref_g ) capacitor c=0.00675379f \
 //x=3.645 //y=7.4 //x2=3.51 //y2=6.02
cc_157 ( N_noxref_2_M9_noxref_d N_noxref_7_M9_noxref_g ) capacitor \
 c=0.0394719f //x=3.585 //y=5.02 //x2=3.51 //y2=6.02
cc_158 ( N_noxref_2_c_92_p N_noxref_9_c_600_n ) capacitor c=0.00190861f \
 //x=6.29 //y=7.4 //x2=6.205 //y2=4.58
cc_159 ( N_noxref_2_c_115_p N_noxref_9_c_600_n ) capacitor c=8.8179e-19 \
 //x=6.28 //y=7.4 //x2=6.205 //y2=4.58
cc_160 ( N_noxref_2_M11_noxref_d N_noxref_9_c_600_n ) capacitor c=0.00641434f \
 //x=6.22 //y=5.02 //x2=6.205 //y2=4.58
cc_161 ( N_noxref_2_c_90_n N_noxref_9_c_603_n ) capacitor c=0.017572f //x=4.81 \
 //y=7.4 //x2=6.01 //y2=4.58
cc_162 ( N_noxref_2_c_90_n N_noxref_9_c_594_n ) capacitor c=4.80934e-19 \
 //x=4.81 //y=7.4 //x2=6.29 //y2=4.495
cc_163 ( N_noxref_2_c_91_n N_noxref_9_c_594_n ) capacitor c=0.0232778f \
 //x=6.29 //y=7.4 //x2=6.29 //y2=4.495
cc_164 ( N_noxref_2_c_92_p N_noxref_9_M10_noxref_d ) capacitor c=0.00708604f \
 //x=6.29 //y=7.4 //x2=5.78 //y2=5.02
cc_165 ( N_noxref_2_c_115_p N_noxref_9_M10_noxref_d ) capacitor c=0.0139004f \
 //x=6.28 //y=7.4 //x2=5.78 //y2=5.02
cc_166 ( N_noxref_2_c_91_n N_noxref_9_M10_noxref_d ) capacitor c=0.0219131f \
 //x=6.29 //y=7.4 //x2=5.78 //y2=5.02
cc_167 ( N_noxref_2_M10_noxref_s N_noxref_9_M10_noxref_d ) capacitor \
 c=0.0843065f //x=5.35 //y=5.02 //x2=5.78 //y2=5.02
cc_168 ( N_noxref_2_M11_noxref_d N_noxref_9_M10_noxref_d ) capacitor \
 c=0.0832641f //x=6.22 //y=5.02 //x2=5.78 //y2=5.02
cc_169 ( N_noxref_3_c_206_n N_noxref_4_M4_noxref_g ) capacitor c=0.0213876f \
 //x=1.615 //y=5.155 //x2=1.31 //y2=6.02
cc_170 ( N_noxref_3_c_202_n N_noxref_4_M5_noxref_g ) capacitor c=0.0204065f \
 //x=2.325 //y=5.155 //x2=1.75 //y2=6.02
cc_171 ( N_noxref_3_M4_noxref_d N_noxref_4_M5_noxref_g ) capacitor \
 c=0.0180032f //x=1.385 //y=5.02 //x2=1.75 //y2=6.02
cc_172 ( N_noxref_3_c_206_n N_noxref_4_c_336_n ) capacitor c=0.00437952f \
 //x=1.615 //y=5.155 //x2=1.675 //y2=4.79
cc_173 ( N_noxref_3_c_202_n N_noxref_5_c_368_n ) capacitor c=0.0149929f \
 //x=2.325 //y=5.155 //x2=2.22 //y2=2.08
cc_174 ( N_noxref_3_c_216_n N_noxref_5_c_368_n ) capacitor c=0.00326759f \
 //x=4.07 //y=3.33 //x2=2.22 //y2=2.08
cc_175 ( N_noxref_3_c_202_n N_noxref_5_M6_noxref_g ) capacitor c=0.0170029f \
 //x=2.325 //y=5.155 //x2=2.19 //y2=6.02
cc_176 ( N_noxref_3_M6_noxref_d N_noxref_5_M6_noxref_g ) capacitor \
 c=0.0180032f //x=2.265 //y=5.02 //x2=2.19 //y2=6.02
cc_177 ( N_noxref_3_c_208_n N_noxref_5_M7_noxref_g ) capacitor c=0.0209317f \
 //x=3.205 //y=5.155 //x2=2.63 //y2=6.02
cc_178 ( N_noxref_3_M6_noxref_d N_noxref_5_M7_noxref_g ) capacitor \
 c=0.0180032f //x=2.265 //y=5.02 //x2=2.63 //y2=6.02
cc_179 ( N_noxref_3_c_257_p N_noxref_5_c_381_n ) capacitor c=0.004361f \
 //x=2.41 //y=5.155 //x2=2.555 //y2=4.79
cc_180 ( N_noxref_3_c_202_n N_noxref_5_c_382_n ) capacitor c=0.0032428f \
 //x=2.325 //y=5.155 //x2=2.22 //y2=4.7
cc_181 ( N_noxref_3_M2_noxref_d N_noxref_6_M0_noxref_s ) capacitor \
 c=0.00309936f //x=3.395 //y=0.915 //x2=0.455 //y2=0.375
cc_182 ( N_noxref_3_c_178_n N_noxref_7_c_483_n ) capacitor c=0.00717888f \
 //x=4.185 //y=3.33 //x2=3.33 //y2=2.08
cc_183 ( N_noxref_3_c_216_n N_noxref_7_c_483_n ) capacitor c=0.0910677f \
 //x=4.07 //y=3.33 //x2=3.33 //y2=2.08
cc_184 ( N_noxref_3_c_181_n N_noxref_7_c_483_n ) capacitor c=0.00126776f \
 //x=5.55 //y=2.085 //x2=3.33 //y2=2.08
cc_185 ( N_noxref_3_c_263_p N_noxref_7_c_483_n ) capacitor c=0.0176831f \
 //x=3.29 //y=5.155 //x2=3.33 //y2=2.08
cc_186 ( N_noxref_3_c_208_n N_noxref_7_M8_noxref_g ) capacitor c=0.0209317f \
 //x=3.205 //y=5.155 //x2=3.07 //y2=6.02
cc_187 ( N_noxref_3_M8_noxref_d N_noxref_7_M8_noxref_g ) capacitor \
 c=0.0180032f //x=3.145 //y=5.02 //x2=3.07 //y2=6.02
cc_188 ( N_noxref_3_c_212_n N_noxref_7_M9_noxref_g ) capacitor c=0.0230698f \
 //x=3.985 //y=5.155 //x2=3.51 //y2=6.02
cc_189 ( N_noxref_3_M8_noxref_d N_noxref_7_M9_noxref_g ) capacitor \
 c=0.0194246f //x=3.145 //y=5.02 //x2=3.51 //y2=6.02
cc_190 ( N_noxref_3_M2_noxref_d N_noxref_7_c_497_n ) capacitor c=0.00217566f \
 //x=3.395 //y=0.915 //x2=3.32 //y2=0.915
cc_191 ( N_noxref_3_M2_noxref_d N_noxref_7_c_498_n ) capacitor c=0.0034598f \
 //x=3.395 //y=0.915 //x2=3.32 //y2=1.26
cc_192 ( N_noxref_3_M2_noxref_d N_noxref_7_c_499_n ) capacitor c=0.00544291f \
 //x=3.395 //y=0.915 //x2=3.32 //y2=1.57
cc_193 ( N_noxref_3_M2_noxref_d N_noxref_7_c_500_n ) capacitor c=0.00241102f \
 //x=3.395 //y=0.915 //x2=3.695 //y2=0.76
cc_194 ( N_noxref_3_c_179_n N_noxref_7_c_501_n ) capacitor c=0.00359704f \
 //x=3.985 //y=1.665 //x2=3.695 //y2=1.415
cc_195 ( N_noxref_3_M2_noxref_d N_noxref_7_c_501_n ) capacitor c=0.0140297f \
 //x=3.395 //y=0.915 //x2=3.695 //y2=1.415
cc_196 ( N_noxref_3_M2_noxref_d N_noxref_7_c_503_n ) capacitor c=0.00219619f \
 //x=3.395 //y=0.915 //x2=3.85 //y2=0.915
cc_197 ( N_noxref_3_c_179_n N_noxref_7_c_504_n ) capacitor c=0.00457401f \
 //x=3.985 //y=1.665 //x2=3.85 //y2=1.26
cc_198 ( N_noxref_3_M2_noxref_d N_noxref_7_c_504_n ) capacitor c=0.00603828f \
 //x=3.395 //y=0.915 //x2=3.85 //y2=1.26
cc_199 ( N_noxref_3_c_216_n N_noxref_7_c_506_n ) capacitor c=0.00877984f \
 //x=4.07 //y=3.33 //x2=3.33 //y2=2.08
cc_200 ( N_noxref_3_c_216_n N_noxref_7_c_507_n ) capacitor c=0.00283672f \
 //x=4.07 //y=3.33 //x2=3.33 //y2=1.915
cc_201 ( N_noxref_3_M2_noxref_d N_noxref_7_c_507_n ) capacitor c=0.00661782f \
 //x=3.395 //y=0.915 //x2=3.33 //y2=1.915
cc_202 ( N_noxref_3_c_212_n N_noxref_7_c_509_n ) capacitor c=0.00201851f \
 //x=3.985 //y=5.155 //x2=3.33 //y2=4.7
cc_203 ( N_noxref_3_c_216_n N_noxref_7_c_509_n ) capacitor c=0.013844f \
 //x=4.07 //y=3.33 //x2=3.33 //y2=4.7
cc_204 ( N_noxref_3_c_263_p N_noxref_7_c_509_n ) capacitor c=0.00475314f \
 //x=3.29 //y=5.155 //x2=3.33 //y2=4.7
cc_205 ( N_noxref_3_c_179_n N_noxref_8_c_544_n ) capacitor c=0.00469128f \
 //x=3.985 //y=1.665 //x2=3.985 //y2=0.54
cc_206 ( N_noxref_3_M2_noxref_d N_noxref_8_c_544_n ) capacitor c=0.0118457f \
 //x=3.395 //y=0.915 //x2=3.985 //y2=0.54
cc_207 ( N_noxref_3_c_285_p N_noxref_8_c_558_n ) capacitor c=0.0200405f \
 //x=3.67 //y=1.665 //x2=3.1 //y2=0.995
cc_208 ( N_noxref_3_M2_noxref_d N_noxref_8_M1_noxref_d ) capacitor \
 c=5.27807e-19 //x=3.395 //y=0.915 //x2=1.86 //y2=0.91
cc_209 ( N_noxref_3_c_179_n N_noxref_8_M2_noxref_s ) capacitor c=0.020752f \
 //x=3.985 //y=1.665 //x2=2.965 //y2=0.375
cc_210 ( N_noxref_3_M2_noxref_d N_noxref_8_M2_noxref_s ) capacitor \
 c=0.0426368f //x=3.395 //y=0.915 //x2=2.965 //y2=0.375
cc_211 ( N_noxref_3_c_289_p N_noxref_9_c_591_n ) capacitor c=0.0023507f \
 //x=6.035 //y=1.41 //x2=6.205 //y2=2.08
cc_212 ( N_noxref_3_c_193_n N_noxref_9_c_612_n ) capacitor c=0.0167852f \
 //x=5.55 //y=2.085 //x2=6.005 //y2=2.08
cc_213 ( N_noxref_3_c_226_n N_noxref_9_c_600_n ) capacitor c=0.0101013f \
 //x=6.07 //y=4.79 //x2=6.205 //y2=4.58
cc_214 ( N_noxref_3_c_181_n N_noxref_9_c_603_n ) capacitor c=0.0250789f \
 //x=5.55 //y=2.085 //x2=6.01 //y2=4.58
cc_215 ( N_noxref_3_c_227_n N_noxref_9_c_603_n ) capacitor c=0.00962086f \
 //x=5.78 //y=4.79 //x2=6.01 //y2=4.58
cc_216 ( N_noxref_3_c_172_n N_noxref_9_c_594_n ) capacitor c=0.00582634f \
 //x=5.435 //y=3.33 //x2=6.29 //y2=4.495
cc_217 ( N_noxref_3_c_216_n N_noxref_9_c_594_n ) capacitor c=0.00126776f \
 //x=4.07 //y=3.33 //x2=6.29 //y2=4.495
cc_218 ( N_noxref_3_c_181_n N_noxref_9_c_594_n ) capacitor c=0.0711303f \
 //x=5.55 //y=2.085 //x2=6.29 //y2=4.495
cc_219 ( N_noxref_3_c_193_n N_noxref_9_c_594_n ) capacitor c=8.49451e-19 \
 //x=5.55 //y=2.085 //x2=6.29 //y2=4.495
cc_220 ( N_noxref_3_c_216_n N_noxref_9_M3_noxref_d ) capacitor c=3.36976e-19 \
 //x=4.07 //y=3.33 //x2=5.735 //y2=0.91
cc_221 ( N_noxref_3_c_181_n N_noxref_9_M3_noxref_d ) capacitor c=0.0175773f \
 //x=5.55 //y=2.085 //x2=5.735 //y2=0.91
cc_222 ( N_noxref_3_c_186_n N_noxref_9_M3_noxref_d ) capacitor c=0.00218556f \
 //x=5.66 //y=0.91 //x2=5.735 //y2=0.91
cc_223 ( N_noxref_3_c_301_p N_noxref_9_M3_noxref_d ) capacitor c=0.00347355f \
 //x=5.66 //y=1.255 //x2=5.735 //y2=0.91
cc_224 ( N_noxref_3_c_302_p N_noxref_9_M3_noxref_d ) capacitor c=0.00742431f \
 //x=5.66 //y=1.565 //x2=5.735 //y2=0.91
cc_225 ( N_noxref_3_c_188_n N_noxref_9_M3_noxref_d ) capacitor c=0.00957707f \
 //x=5.66 //y=1.92 //x2=5.735 //y2=0.91
cc_226 ( N_noxref_3_c_189_n N_noxref_9_M3_noxref_d ) capacitor c=0.00220879f \
 //x=6.035 //y=0.755 //x2=5.735 //y2=0.91
cc_227 ( N_noxref_3_c_289_p N_noxref_9_M3_noxref_d ) capacitor c=0.0138447f \
 //x=6.035 //y=1.41 //x2=5.735 //y2=0.91
cc_228 ( N_noxref_3_c_190_n N_noxref_9_M3_noxref_d ) capacitor c=0.00218624f \
 //x=6.19 //y=0.91 //x2=5.735 //y2=0.91
cc_229 ( N_noxref_3_c_192_n N_noxref_9_M3_noxref_d ) capacitor c=0.00601286f \
 //x=6.19 //y=1.255 //x2=5.735 //y2=0.91
cc_230 ( N_noxref_3_c_216_n N_noxref_9_M10_noxref_d ) capacitor c=6.5427e-19 \
 //x=4.07 //y=3.33 //x2=5.78 //y2=5.02
cc_231 ( N_noxref_3_M10_noxref_g N_noxref_9_M10_noxref_d ) capacitor \
 c=0.0219309f //x=5.705 //y=6.02 //x2=5.78 //y2=5.02
cc_232 ( N_noxref_3_M11_noxref_g N_noxref_9_M10_noxref_d ) capacitor \
 c=0.021902f //x=6.145 //y=6.02 //x2=5.78 //y2=5.02
cc_233 ( N_noxref_3_c_226_n N_noxref_9_M10_noxref_d ) capacitor c=0.0148755f \