// File: ao3x1_pcell.spi.pex
// Created: Tue Oct 15 15:54:46 2024
// Program "Calibre xRC"
// Version "v2023.2_27.15"
// Nominal Temperature: 30C
// Circuit Temperature: 30C
// 
simulator lang=spectre
subckt PM_AO3X1_PCELL\%noxref_1 ( 15 19 22 27 38 43 47 55 59 81 85 98 118 123 \
 130 131 132 )
c122 ( 132 0 ) capacitor c=0.0597349f //x=7.155 //y=0.37
c123 ( 131 0 ) capacitor c=0.0696742f //x=3.89 //y=0.365
c124 ( 130 0 ) capacitor c=0.0208404f //x=0.99 //y=0.865
c125 ( 123 0 ) capacitor c=0.233789f //x=8.26 //y=0
c126 ( 118 0 ) capacitor c=0.0990091f //x=6.66 //y=0
c127 ( 98 0 ) capacitor c=0.107062f //x=3.33 //y=0
c128 ( 97 0 ) capacitor c=0.00440095f //x=1.18 //y=0
c129 ( 88 0 ) capacitor c=0.00587411f //x=8.26 //y=0.45
c130 ( 85 0 ) capacitor c=0.00542558f //x=8.175 //y=0.535
c131 ( 84 0 ) capacitor c=0.00479856f //x=7.775 //y=0.45
c132 ( 81 0 ) capacitor c=0.00690112f //x=7.69 //y=0.535
c133 ( 76 0 ) capacitor c=0.00592191f //x=7.29 //y=0.45
c134 ( 71 0 ) capacitor c=0.0190475f //x=7.205 //y=0
c135 ( 68 0 ) capacitor c=0.0659312f //x=6.05 //y=0
c136 ( 67 0 ) capacitor c=0.0227441f //x=6.49 //y=0
c137 ( 62 0 ) capacitor c=0.00609805f //x=5.965 //y=0.445
c138 ( 59 0 ) capacitor c=0.00508073f //x=5.88 //y=0.53
c139 ( 58 0 ) capacitor c=0.00468234f //x=5.48 //y=0.445
c140 ( 55 0 ) capacitor c=0.00556167f //x=5.395 //y=0.53
c141 ( 50 0 ) capacitor c=0.00468234f //x=4.995 //y=0.445
c142 ( 47 0 ) capacitor c=0.00556167f //x=4.91 //y=0.53
c143 ( 46 0 ) capacitor c=0.00468234f //x=4.51 //y=0.445
c144 ( 43 0 ) capacitor c=0.00692577f //x=4.425 //y=0.53
c145 ( 38 0 ) capacitor c=0.00609805f //x=4.025 //y=0.445
c146 ( 35 0 ) capacitor c=0.0227441f //x=3.94 //y=0
c147 ( 27 0 ) capacitor c=0.0751168f //x=3.16 //y=0
c148 ( 22 0 ) capacitor c=0.179504f //x=0.74 //y=0
c149 ( 19 0 ) capacitor c=0.0426751f //x=1.095 //y=0
c150 ( 15 0 ) capacitor c=0.343897f //x=8.14 //y=0
r151 (  122 123 ) resistor r=4.30252 //w=0.357 //l=0.12 //layer=li \
 //thickness=0.1 //x=8.14 //y=0 //x2=8.26 //y2=0
r152 (  120 122 ) resistor r=13.0868 //w=0.357 //l=0.365 //layer=li \
 //thickness=0.1 //x=7.775 //y=0 //x2=8.14 //y2=0
r153 (  119 120 ) resistor r=17.3894 //w=0.357 //l=0.485 //layer=li \
 //thickness=0.1 //x=7.29 //y=0 //x2=7.775 //y2=0
r154 (  106 107 ) resistor r=14.8796 //w=0.357 //l=0.415 //layer=li \
 //thickness=0.1 //x=5.55 //y=0 //x2=5.965 //y2=0
r155 (  104 106 ) resistor r=2.5098 //w=0.357 //l=0.07 //layer=li \
 //thickness=0.1 //x=5.48 //y=0 //x2=5.55 //y2=0
r156 (  103 104 ) resistor r=17.3894 //w=0.357 //l=0.485 //layer=li \
 //thickness=0.1 //x=4.995 //y=0 //x2=5.48 //y2=0
r157 (  102 103 ) resistor r=17.3894 //w=0.357 //l=0.485 //layer=li \
 //thickness=0.1 //x=4.51 //y=0 //x2=4.995 //y2=0
r158 (  101 102 ) resistor r=2.5098 //w=0.357 //l=0.07 //layer=li \
 //thickness=0.1 //x=4.44 //y=0 //x2=4.51 //y2=0
r159 (  99 101 ) resistor r=14.8796 //w=0.357 //l=0.415 //layer=li \
 //thickness=0.1 //x=4.025 //y=0 //x2=4.44 //y2=0
r160 (  89 132 ) resistor r=5.4201 //w=0.17 //l=0.085 //layer=li \
 //thickness=0.1 //x=8.26 //y=0.62 //x2=8.26 //y2=0.535
r161 (  89 132 ) resistor r=41.4118 //w=0.187 //l=0.605 //layer=li \
 //thickness=0.1 //x=8.26 //y=0.62 //x2=8.26 //y2=1.225
r162 (  88 132 ) resistor r=5.4201 //w=0.17 //l=0.085 //layer=li \
 //thickness=0.1 //x=8.26 //y=0.45 //x2=8.26 //y2=0.535
r163 (  87 123 ) resistor r=5.03728 //w=0.34 //l=0.17 //layer=li \
 //thickness=0.1 //x=8.26 //y=0.17 //x2=8.26 //y2=0
r164 (  87 88 ) resistor r=19.1658 //w=0.187 //l=0.28 //layer=li \
 //thickness=0.1 //x=8.26 //y=0.17 //x2=8.26 //y2=0.45
r165 (  86 132 ) resistor r=5.4201 //w=0.17 //l=0.085 //layer=li \
 //thickness=0.1 //x=7.86 //y=0.535 //x2=7.775 //y2=0.535
r166 (  85 132 ) resistor r=1.40859 //w=0.34 //l=0.085 //layer=li \
 //thickness=0.1 //x=8.175 //y=0.535 //x2=8.26 //y2=0.535
r167 (  85 86 ) resistor r=21.5615 //w=0.187 //l=0.315 //layer=li \
 //thickness=0.1 //x=8.175 //y=0.535 //x2=7.86 //y2=0.535
r168 (  84 132 ) resistor r=1.40859 //w=0.34 //l=0.085 //layer=li \
 //thickness=0.1 //x=7.775 //y=0.45 //x2=7.775 //y2=0.535
r169 (  83 120 ) resistor r=5.03728 //w=0.34 //l=0.17 //layer=li \
 //thickness=0.1 //x=7.775 //y=0.17 //x2=7.775 //y2=0
r170 (  83 84 ) resistor r=19.1658 //w=0.187 //l=0.28 //layer=li \
 //thickness=0.1 //x=7.775 //y=0.17 //x2=7.775 //y2=0.45
r171 (  82 132 ) resistor r=1.40859 //w=0.34 //l=0.085 //layer=li \
 //thickness=0.1 //x=7.375 //y=0.535 //x2=7.29 //y2=0.535
r172 (  81 132 ) resistor r=5.4201 //w=0.17 //l=0.085 //layer=li \
 //thickness=0.1 //x=7.69 //y=0.535 //x2=7.775 //y2=0.535
r173 (  81 82 ) resistor r=21.5615 //w=0.187 //l=0.315 //layer=li \
 //thickness=0.1 //x=7.69 //y=0.535 //x2=7.375 //y2=0.535
r174 (  77 132 ) resistor r=5.4201 //w=0.17 //l=0.085 //layer=li \
 //thickness=0.1 //x=7.29 //y=0.62 //x2=7.29 //y2=0.535
r175 (  77 132 ) resistor r=41.4118 //w=0.187 //l=0.605 //layer=li \
 //thickness=0.1 //x=7.29 //y=0.62 //x2=7.29 //y2=1.225
r176 (  76 132 ) resistor r=5.4201 //w=0.17 //l=0.085 //layer=li \
 //thickness=0.1 //x=7.29 //y=0.45 //x2=7.29 //y2=0.535
r177 (  75 119 ) resistor r=5.03728 //w=0.34 //l=0.17 //layer=li \
 //thickness=0.1 //x=7.29 //y=0.17 //x2=7.29 //y2=0
r178 (  75 76 ) resistor r=19.1658 //w=0.187 //l=0.28 //layer=li \
 //thickness=0.1 //x=7.29 //y=0.17 //x2=7.29 //y2=0.45
r179 (  72 118 ) resistor r=5.4201 //w=0.34 //l=0.17 //layer=li \
 //thickness=0.1 //x=6.83 //y=0 //x2=6.66 //y2=0
r180 (  72 74 ) resistor r=7.17087 //w=0.357 //l=0.2 //layer=li \
 //thickness=0.1 //x=6.83 //y=0 //x2=7.03 //y2=0
r181 (  71 119 ) resistor r=3.04762 //w=0.357 //l=0.085 //layer=li \
 //thickness=0.1 //x=7.205 //y=0 //x2=7.29 //y2=0
r182 (  71 74 ) resistor r=6.27451 //w=0.357 //l=0.175 //layer=li \
 //thickness=0.1 //x=7.205 //y=0 //x2=7.03 //y2=0
r183 (  68 107 ) resistor r=3.04762 //w=0.357 //l=0.085 //layer=li \
 //thickness=0.1 //x=6.05 //y=0 //x2=5.965 //y2=0
r184 (  67 118 ) resistor r=5.4201 //w=0.34 //l=0.17 //layer=li \
 //thickness=0.1 //x=6.49 //y=0 //x2=6.66 //y2=0
r185 (  67 68 ) resistor r=15.7759 //w=0.357 //l=0.44 //layer=li \
 //thickness=0.1 //x=6.49 //y=0 //x2=6.05 //y2=0
r186 (  63 131 ) resistor r=5.4201 //w=0.17 //l=0.085 //layer=li \
 //thickness=0.1 //x=5.965 //y=0.615 //x2=5.965 //y2=0.53
r187 (  63 131 ) resistor r=18.139 //w=0.187 //l=0.265 //layer=li \
 //thickness=0.1 //x=5.965 //y=0.615 //x2=5.965 //y2=0.88
r188 (  62 131 ) resistor r=5.4201 //w=0.17 //l=0.085 //layer=li \
 //thickness=0.1 //x=5.965 //y=0.445 //x2=5.965 //y2=0.53
r189 (  61 107 ) resistor r=5.03728 //w=0.34 //l=0.17 //layer=li \
 //thickness=0.1 //x=5.965 //y=0.17 //x2=5.965 //y2=0
r190 (  61 62 ) resistor r=18.8235 //w=0.187 //l=0.275 //layer=li \
 //thickness=0.1 //x=5.965 //y=0.17 //x2=5.965 //y2=0.445
r191 (  60 131 ) resistor r=5.4201 //w=0.17 //l=0.085 //layer=li \
 //thickness=0.1 //x=5.565 //y=0.53 //x2=5.48 //y2=0.53
r192 (  59 131 ) resistor r=1.40859 //w=0.34 //l=0.085 //layer=li \
 //thickness=0.1 //x=5.88 //y=0.53 //x2=5.965 //y2=0.53
r193 (  59 60 ) resistor r=21.5615 //w=0.187 //l=0.315 //layer=li \
 //thickness=0.1 //x=5.88 //y=0.53 //x2=5.565 //y2=0.53
r194 (  58 131 ) resistor r=1.40859 //w=0.34 //l=0.085 //layer=li \
 //thickness=0.1 //x=5.48 //y=0.445 //x2=5.48 //y2=0.53
r195 (  57 104 ) resistor r=5.03728 //w=0.34 //l=0.17 //layer=li \
 //thickness=0.1 //x=5.48 //y=0.17 //x2=5.48 //y2=0
r196 (  57 58 ) resistor r=18.8235 //w=0.187 //l=0.275 //layer=li \
 //thickness=0.1 //x=5.48 //y=0.17 //x2=5.48 //y2=0.445
r197 (  56 131 ) resistor r=6.4 //w=0.17 //l=0.085 //layer=li //thickness=0.1 \
 //x=5.08 //y=0.53 //x2=4.995 //y2=0.53
r198 (  55 131 ) resistor r=5.4201 //w=0.17 //l=0.085 //layer=li \
 //thickness=0.1 //x=5.395 //y=0.53 //x2=5.48 //y2=0.53
r199 (  55 56 ) resistor r=21.5615 //w=0.187 //l=0.315 //layer=li \
 //thickness=0.1 //x=5.395 //y=0.53 //x2=5.08 //y2=0.53
r200 (  51 131 ) resistor r=6.4 //w=0.17 //l=0.085 //layer=li //thickness=0.1 \
 //x=4.995 //y=0.615 //x2=4.995 //y2=0.53
r201 (  51 131 ) resistor r=18.139 //w=0.187 //l=0.265 //layer=li \
 //thickness=0.1 //x=4.995 //y=0.615 //x2=4.995 //y2=0.88
r202 (  50 131 ) resistor r=6.4 //w=0.17 //l=0.085 //layer=li //thickness=0.1 \
 //x=4.995 //y=0.445 //x2=4.995 //y2=0.53
r203 (  49 103 ) resistor r=5.03728 //w=0.34 //l=0.17 //layer=li \
 //thickness=0.1 //x=4.995 //y=0.17 //x2=4.995 //y2=0
r204 (  49 50 ) resistor r=18.8235 //w=0.187 //l=0.275 //layer=li \
 //thickness=0.1 //x=4.995 //y=0.17 //x2=4.995 //y2=0.445
r205 (  48 131 ) resistor r=5.4201 //w=0.17 //l=0.085 //layer=li \
 //thickness=0.1 //x=4.595 //y=0.53 //x2=4.51 //y2=0.53
r206 (  47 131 ) resistor r=6.4 //w=0.17 //l=0.085 //layer=li //thickness=0.1 \
 //x=4.91 //y=0.53 //x2=4.995 //y2=0.53
r207 (  47 48 ) resistor r=21.5615 //w=0.187 //l=0.315 //layer=li \
 //thickness=0.1 //x=4.91 //y=0.53 //x2=4.595 //y2=0.53
r208 (  46 131 ) resistor r=1.40859 //w=0.34 //l=0.085 //layer=li \
 //thickness=0.1 //x=4.51 //y=0.445 //x2=4.51 //y2=0.53
r209 (  45 102 ) resistor r=5.03728 //w=0.34 //l=0.17 //layer=li \
 //thickness=0.1 //x=4.51 //y=0.17 //x2=4.51 //y2=0
r210 (  45 46 ) resistor r=18.8235 //w=0.187 //l=0.275 //layer=li \
 //thickness=0.1 //x=4.51 //y=0.17 //x2=4.51 //y2=0.445
r211 (  44 131 ) resistor r=1.40859 //w=0.34 //l=0.085 //layer=li \
 //thickness=0.1 //x=4.11 //y=0.53 //x2=4.025 //y2=0.53
r212 (  43 131 ) resistor r=5.4201 //w=0.17 //l=0.085 //layer=li \
 //thickness=0.1 //x=4.425 //y=0.53 //x2=4.51 //y2=0.53
r213 (  43 44 ) resistor r=21.5615 //w=0.187 //l=0.315 //layer=li \
 //thickness=0.1 //x=4.425 //y=0.53 //x2=4.11 //y2=0.53
r214 (  39 131 ) resistor r=5.4201 //w=0.17 //l=0.085 //layer=li \
 //thickness=0.1 //x=4.025 //y=0.615 //x2=4.025 //y2=0.53
r215 (  39 131 ) resistor r=41.4118 //w=0.187 //l=0.605 //layer=li \
 //thickness=0.1 //x=4.025 //y=0.615 //x2=4.025 //y2=1.22
r216 (  38 131 ) resistor r=5.4201 //w=0.17 //l=0.085 //layer=li \
 //thickness=0.1 //x=4.025 //y=0.445 //x2=4.025 //y2=0.53
r217 (  37 99 ) resistor r=5.03728 //w=0.34 //l=0.17 //layer=li \
 //thickness=0.1 //x=4.025 //y=0.17 //x2=4.025 //y2=0
r218 (  37 38 ) resistor r=18.8235 //w=0.187 //l=0.275 //layer=li \
 //thickness=0.1 //x=4.025 //y=0.17 //x2=4.025 //y2=0.445
r219 (  36 98 ) resistor r=5.4201 //w=0.34 //l=0.17 //layer=li //thickness=0.1 \
 //x=3.5 //y=0 //x2=3.33 //y2=0
r220 (  35 99 ) resistor r=3.04762 //w=0.357 //l=0.085 //layer=li \
 //thickness=0.1 //x=3.94 //y=0 //x2=4.025 //y2=0
r221 (  35 36 ) resistor r=15.7759 //w=0.357 //l=0.44 //layer=li \
 //thickness=0.1 //x=3.94 //y=0 //x2=3.5 //y2=0
r222 (  30 32 ) resistor r=39.7983 //w=0.357 //l=1.11 //layer=li \
 //thickness=0.1 //x=1.85 //y=0 //x2=2.96 //y2=0
r223 (  28 97 ) resistor r=2.94794 //w=0.34 //l=0.085 //layer=li \
 //thickness=0.1 //x=1.265 //y=0 //x2=1.18 //y2=0
r224 (  28 30 ) resistor r=20.9748 //w=0.357 //l=0.585 //layer=li \
 //thickness=0.1 //x=1.265 //y=0 //x2=1.85 //y2=0
r225 (  27 98 ) resistor r=5.4201 //w=0.34 //l=0.17 //layer=li //thickness=0.1 \
 //x=3.16 //y=0 //x2=3.33 //y2=0
r226 (  27 32 ) resistor r=7.17087 //w=0.357 //l=0.2 //layer=li \
 //thickness=0.1 //x=3.16 //y=0 //x2=2.96 //y2=0
r227 (  23 97 ) resistor r=4.11603 //w=0.68 //l=0.17 //layer=li \
 //thickness=0.1 //x=1.18 //y=0.17 //x2=1.18 //y2=0
r228 (  23 130 ) resistor r=53.7326 //w=0.187 //l=0.785 //layer=li \
 //thickness=0.1 //x=1.18 //y=0.17 //x2=1.18 //y2=0.955
r229 (  19 97 ) resistor r=2.94794 //w=0.34 //l=0.085 //layer=li \
 //thickness=0.1 //x=1.095 //y=0 //x2=1.18 //y2=0
r230 (  19 22 ) resistor r=12.7283 //w=0.357 //l=0.355 //layer=li \
 //thickness=0.1 //x=1.095 //y=0 //x2=0.74 //y2=0
r231 (  15 122 ) resistor r=3.1 //w=0.17 //l=0.51 //layer=mcon //count=3 \
 //x=8.14 //y=0 //x2=8.14 //y2=0
r232 (  13 74 ) resistor r=3.1 //w=0.17 //l=0.51 //layer=mcon //count=3 \
 //x=7.03 //y=0 //x2=7.03 //y2=0
r233 (  13 15 ) resistor r=0.460963 //w=0.301 //l=1.11 //layer=m1 \
 //thickness=0.36 //x=7.03 //y=0 //x2=8.14 //y2=0
r234 (  11 106 ) resistor r=3.1 //w=0.17 //l=0.51 //layer=mcon //count=3 \
 //x=5.55 //y=0 //x2=5.55 //y2=0
r235 (  11 13 ) resistor r=0.614618 //w=0.301 //l=1.48 //layer=m1 \
 //thickness=0.36 //x=5.55 //y=0 //x2=7.03 //y2=0
r236 (  9 101 ) resistor r=3.1 //w=0.17 //l=0.51 //layer=mcon //count=3 \
 //x=4.44 //y=0 //x2=4.44 //y2=0
r237 (  9 11 ) resistor r=0.460963 //w=0.301 //l=1.11 //layer=m1 \
 //thickness=0.36 //x=4.44 //y=0 //x2=5.55 //y2=0
r238 (  7 32 ) resistor r=3.1 //w=0.17 //l=0.51 //layer=mcon //count=3 \
 //x=2.96 //y=0 //x2=2.96 //y2=0
r239 (  7 9 ) resistor r=0.614618 //w=0.301 //l=1.48 //layer=m1 \
 //thickness=0.36 //x=2.96 //y=0 //x2=4.44 //y2=0
r240 (  5 30 ) resistor r=3.1 //w=0.17 //l=0.51 //layer=mcon //count=3 \
 //x=1.85 //y=0 //x2=1.85 //y2=0
r241 (  5 7 ) resistor r=0.460963 //w=0.301 //l=1.11 //layer=m1 \
 //thickness=0.36 //x=1.85 //y=0 //x2=2.96 //y2=0
r242 (  2 22 ) resistor r=3.1 //w=0.17 //l=0.51 //layer=mcon //count=3 \
 //x=0.74 //y=0 //x2=0.74 //y2=0
r243 (  2 5 ) resistor r=0.460963 //w=0.301 //l=1.11 //layer=m1 \
 //thickness=0.36 //x=0.74 //y=0 //x2=1.85 //y2=0
ends PM_AO3X1_PCELL\%noxref_1

subckt PM_AO3X1_PCELL\%noxref_2 ( 15 27 35 51 61 77 90 93 95 98 99 100 101 102 \
 103 104 )
c102 ( 104 0 ) capacitor c=0.0451925f //x=8.07 //y=5.02
c103 ( 103 0 ) capacitor c=0.0429364f //x=7.2 //y=5.02
c104 ( 102 0 ) capacitor c=0.0256796f //x=4.415 //y=5.025
c105 ( 101 0 ) capacitor c=0.0383753f //x=2.405 //y=5.02
c106 ( 100 0 ) capacitor c=0.0243052f //x=1.525 //y=5.02
c107 ( 99 0 ) capacitor c=0.053196f //x=0.655 //y=5.02
c108 ( 98 0 ) capacitor c=0.234796f //x=8.14 //y=7.4
c109 ( 96 0 ) capacitor c=0.00591168f //x=7.335 //y=7.4
c110 ( 95 0 ) capacitor c=0.110627f //x=6.66 //y=7.4
c111 ( 94 0 ) capacitor c=0.00591168f //x=4.56 //y=7.4
c112 ( 93 0 ) capacitor c=0.116004f //x=3.33 //y=7.4
c113 ( 92 0 ) capacitor c=0.00591168f //x=2.55 //y=7.4
c114 ( 91 0 ) capacitor c=0.00591168f //x=1.67 //y=7.4
c115 ( 90 0 ) capacitor c=0.24846f //x=0.74 //y=7.4
c116 ( 77 0 ) capacitor c=0.028745f //x=8.13 //y=7.4
c117 ( 67 0 ) capacitor c=0.0216067f //x=7.25 //y=7.4
c118 ( 61 0 ) capacitor c=0.0778183f //x=6.49 //y=7.4
c119 ( 51 0 ) capacitor c=0.0465804f //x=4.475 //y=7.4
c120 ( 45 0 ) capacitor c=0.0275781f //x=3.16 //y=7.4
c121 ( 35 0 ) capacitor c=0.0285035f //x=2.465 //y=7.4
c122 ( 27 0 ) capacitor c=0.0286367f //x=1.585 //y=7.4
c123 ( 15 0 ) capacitor c=0.353989f //x=8.14 //y=7.4
r124 (  79 98 ) resistor r=4.11603 //w=0.68 //l=0.17 //layer=li \
 //thickness=0.1 //x=8.215 //y=7.23 //x2=8.215 //y2=7.4
r125 (  79 104 ) resistor r=56.4706 //w=0.187 //l=0.825 //layer=li \
 //thickness=0.1 //x=8.215 //y=7.23 //x2=8.215 //y2=6.405
r126 (  78 96 ) resistor r=2.94794 //w=0.34 //l=0.085 //layer=li \
 //thickness=0.1 //x=7.42 //y=7.4 //x2=7.335 //y2=7.4
r127 (  77 98 ) resistor r=2.94794 //w=0.34 //l=0.085 //layer=li \
 //thickness=0.1 //x=8.13 //y=7.4 //x2=8.215 //y2=7.4
r128 (  77 78 ) resistor r=25.4566 //w=0.357 //l=0.71 //layer=li \
 //thickness=0.1 //x=8.13 //y=7.4 //x2=7.42 //y2=7.4
r129 (  71 96 ) resistor r=4.11603 //w=0.68 //l=0.17 //layer=li \
 //thickness=0.1 //x=7.335 //y=7.23 //x2=7.335 //y2=7.4
r130 (  71 103 ) resistor r=56.4706 //w=0.187 //l=0.825 //layer=li \
 //thickness=0.1 //x=7.335 //y=7.23 //x2=7.335 //y2=6.405
r131 (  68 95 ) resistor r=5.4201 //w=0.34 //l=0.17 //layer=li //thickness=0.1 \
 //x=6.83 //y=7.4 //x2=6.66 //y2=7.4
r132 (  68 70 ) resistor r=7.17087 //w=0.357 //l=0.2 //layer=li \
 //thickness=0.1 //x=6.83 //y=7.4 //x2=7.03 //y2=7.4
r133 (  67 96 ) resistor r=2.94794 //w=0.34 //l=0.085 //layer=li \
 //thickness=0.1 //x=7.25 //y=7.4 //x2=7.335 //y2=7.4
r134 (  67 70 ) resistor r=7.88796 //w=0.357 //l=0.22 //layer=li \
 //thickness=0.1 //x=7.25 //y=7.4 //x2=7.03 //y2=7.4
r135 (  62 94 ) resistor r=2.94794 //w=0.34 //l=0.085 //layer=li \
 //thickness=0.1 //x=4.645 //y=7.4 //x2=4.56 //y2=7.4
r136 (  62 64 ) resistor r=32.4482 //w=0.357 //l=0.905 //layer=li \
 //thickness=0.1 //x=4.645 //y=7.4 //x2=5.55 //y2=7.4
r137 (  61 95 ) resistor r=5.4201 //w=0.34 //l=0.17 //layer=li //thickness=0.1 \
 //x=6.49 //y=7.4 //x2=6.66 //y2=7.4
r138 (  61 64 ) resistor r=33.7031 //w=0.357 //l=0.94 //layer=li \
 //thickness=0.1 //x=6.49 //y=7.4 //x2=5.55 //y2=7.4
r139 (  55 94 ) resistor r=4.11603 //w=0.68 //l=0.17 //layer=li \
 //thickness=0.1 //x=4.56 //y=7.23 //x2=4.56 //y2=7.4
r140 (  55 102 ) resistor r=33.5401 //w=0.187 //l=0.49 //layer=li \
 //thickness=0.1 //x=4.56 //y=7.23 //x2=4.56 //y2=6.74
r141 (  52 93 ) resistor r=5.4201 //w=0.34 //l=0.17 //layer=li //thickness=0.1 \
 //x=3.5 //y=7.4 //x2=3.33 //y2=7.4
r142 (  52 54 ) resistor r=33.7031 //w=0.357 //l=0.94 //layer=li \
 //thickness=0.1 //x=3.5 //y=7.4 //x2=4.44 //y2=7.4
r143 (  51 94 ) resistor r=2.94794 //w=0.34 //l=0.085 //layer=li \
 //thickness=0.1 //x=4.475 //y=7.4 //x2=4.56 //y2=7.4
r144 (  51 54 ) resistor r=1.2549 //w=0.357 //l=0.035 //layer=li \
 //thickness=0.1 //x=4.475 //y=7.4 //x2=4.44 //y2=7.4
r145 (  46 92 ) resistor r=2.94794 //w=0.34 //l=0.085 //layer=li \
 //thickness=0.1 //x=2.635 //y=7.4 //x2=2.55 //y2=7.4
r146 (  46 48 ) resistor r=11.6527 //w=0.357 //l=0.325 //layer=li \
 //thickness=0.1 //x=2.635 //y=7.4 //x2=2.96 //y2=7.4
r147 (  45 93 ) resistor r=5.4201 //w=0.34 //l=0.17 //layer=li //thickness=0.1 \
 //x=3.16 //y=7.4 //x2=3.33 //y2=7.4
r148 (  45 48 ) resistor r=7.17087 //w=0.357 //l=0.2 //layer=li \
 //thickness=0.1 //x=3.16 //y=7.4 //x2=2.96 //y2=7.4
r149 (  39 92 ) resistor r=4.11603 //w=0.68 //l=0.17 //layer=li \
 //thickness=0.1 //x=2.55 //y=7.23 //x2=2.55 //y2=7.4
r150 (  39 101 ) resistor r=33.1979 //w=0.187 //l=0.485 //layer=li \
 //thickness=0.1 //x=2.55 //y=7.23 //x2=2.55 //y2=6.745
r151 (  36 91 ) resistor r=2.94794 //w=0.34 //l=0.085 //layer=li \
 //thickness=0.1 //x=1.755 //y=7.4 //x2=1.67 //y2=7.4
r152 (  36 38 ) resistor r=3.40616 //w=0.357 //l=0.095 //layer=li \
 //thickness=0.1 //x=1.755 //y=7.4 //x2=1.85 //y2=7.4
r153 (  35 92 ) resistor r=2.94794 //w=0.34 //l=0.085 //layer=li \
 //thickness=0.1 //x=2.465 //y=7.4 //x2=2.55 //y2=7.4
r154 (  35 38 ) resistor r=22.0504 //w=0.357 //l=0.615 //layer=li \
 //thickness=0.1 //x=2.465 //y=7.4 //x2=1.85 //y2=7.4
r155 (  29 91 ) resistor r=4.11603 //w=0.68 //l=0.17 //layer=li \
 //thickness=0.1 //x=1.67 //y=7.23 //x2=1.67 //y2=7.4
r156 (  29 100 ) resistor r=33.1979 //w=0.187 //l=0.485 //layer=li \
 //thickness=0.1 //x=1.67 //y=7.23 //x2=1.67 //y2=6.745
r157 (  28 90 ) resistor r=2.94794 //w=0.34 //l=0.085 //layer=li \
 //thickness=0.1 //x=0.875 //y=7.4 //x2=0.79 //y2=7.4
r158 (  27 91 ) resistor r=2.94794 //w=0.34 //l=0.085 //layer=li \
 //thickness=0.1 //x=1.585 //y=7.4 //x2=1.67 //y2=7.4
r159 (  27 28 ) resistor r=25.4566 //w=0.357 //l=0.71 //layer=li \
 //thickness=0.1 //x=1.585 //y=7.4 //x2=0.875 //y2=7.4
r160 (  21 90 ) resistor r=4.11603 //w=0.68 //l=0.17 //layer=li \
 //thickness=0.1 //x=0.79 //y=7.23 //x2=0.79 //y2=7.4
r161 (  21 99 ) resistor r=56.4706 //w=0.187 //l=0.825 //layer=li \
 //thickness=0.1 //x=0.79 //y=7.23 //x2=0.79 //y2=6.405
r162 (  15 98 ) resistor r=3.1 //w=0.17 //l=0.51 //layer=mcon //count=3 \
 //x=8.14 //y=7.4 //x2=8.14 //y2=7.4
r163 (  13 70 ) resistor r=3.1 //w=0.17 //l=0.51 //layer=mcon //count=3 \
 //x=7.03 //y=7.4 //x2=7.03 //y2=7.4
r164 (  13 15 ) resistor r=0.460963 //w=0.301 //l=1.11 //layer=m1 \
 //thickness=0.36 //x=7.03 //y=7.4 //x2=8.14 //y2=7.4
r165 (  11 64 ) resistor r=3.1 //w=0.17 //l=0.51 //layer=mcon //count=3 \
 //x=5.55 //y=7.4 //x2=5.55 //y2=7.4
r166 (  11 13 ) resistor r=0.614618 //w=0.301 //l=1.48 //layer=m1 \
 //thickness=0.36 //x=5.55 //y=7.4 //x2=7.03 //y2=7.4
r167 (  9 54 ) resistor r=3.1 //w=0.17 //l=0.51 //layer=mcon //count=3 \
 //x=4.44 //y=7.4 //x2=4.44 //y2=7.4
r168 (  9 11 ) resistor r=0.460963 //w=0.301 //l=1.11 //layer=m1 \
 //thickness=0.36 //x=4.44 //y=7.4 //x2=5.55 //y2=7.4
r169 (  7 48 ) resistor r=3.1 //w=0.17 //l=0.51 //layer=mcon //count=3 \
 //x=2.96 //y=7.4 //x2=2.96 //y2=7.4
r170 (  7 9 ) resistor r=0.614618 //w=0.301 //l=1.48 //layer=m1 \
 //thickness=0.36 //x=2.96 //y=7.4 //x2=4.44 //y2=7.4
r171 (  5 38 ) resistor r=3.1 //w=0.17 //l=0.51 //layer=mcon //count=3 \
 //x=1.85 //y=7.4 //x2=1.85 //y2=7.4
r172 (  5 7 ) resistor r=0.460963 //w=0.301 //l=1.11 //layer=m1 \
 //thickness=0.36 //x=1.85 //y=7.4 //x2=2.96 //y2=7.4
r173 (  2 90 ) resistor r=3.1 //w=0.17 //l=0.51 //layer=mcon //count=3 \
 //x=0.74 //y=7.4 //x2=0.74 //y2=7.4
r174 (  2 5 ) resistor r=0.460963 //w=0.301 //l=1.11 //layer=m1 \
 //thickness=0.36 //x=0.74 //y=7.4 //x2=1.85 //y2=7.4
ends PM_AO3X1_PCELL\%noxref_2

subckt PM_AO3X1_PCELL\%noxref_3 ( 1 2 13 14 25 27 28 32 35 39 41 43 44 45 46 \
 47 48 49 53 55 58 60 61 66 76 78 79 )
c144 ( 79 0 ) capacitor c=0.0220291f //x=1.965 //y=5.02
c145 ( 78 0 ) capacitor c=0.0217503f //x=1.085 //y=5.02
c146 ( 76 0 ) capacitor c=0.00865153f //x=1.96 //y=0.905
c147 ( 66 0 ) capacitor c=0.04214f //x=4.285 //y=4.705
c148 ( 61 0 ) capacitor c=0.0321911f //x=4.775 //y=1.25
c149 ( 60 0 ) capacitor c=0.0185201f //x=4.775 //y=0.905
c150 ( 58 0 ) capacitor c=0.0344254f //x=4.705 //y=4.795
c151 ( 55 0 ) capacitor c=0.0133656f //x=4.62 //y=1.405
c152 ( 53 0 ) capacitor c=0.0157804f //x=4.62 //y=0.75
c153 ( 49 0 ) capacitor c=0.0785055f //x=4.245 //y=1.915
c154 ( 48 0 ) capacitor c=0.022867f //x=4.245 //y=1.56
c155 ( 47 0 ) capacitor c=0.0234318f //x=4.245 //y=1.25
c156 ( 46 0 ) capacitor c=0.0192004f //x=4.245 //y=0.905
c157 ( 45 0 ) capacitor c=0.110795f //x=4.78 //y=6.025
c158 ( 44 0 ) capacitor c=0.153847f //x=4.34 //y=6.025
c159 ( 41 0 ) capacitor c=0.00995068f //x=4.285 //y=4.705
c160 ( 39 0 ) capacitor c=0.00427536f //x=2.11 //y=5.2
c161 ( 35 0 ) capacitor c=0.0968478f //x=4.44 //y=2.08
c162 ( 32 0 ) capacitor c=0.117241f //x=2.59 //y=2.59
c163 ( 28 0 ) capacitor c=0.00781917f //x=2.235 //y=1.655
c164 ( 27 0 ) capacitor c=0.0159132f //x=2.505 //y=1.655
c165 ( 25 0 ) capacitor c=0.017841f //x=2.505 //y=5.2
c166 ( 14 0 ) capacitor c=0.00387264f //x=1.315 //y=5.2
c167 ( 13 0 ) capacitor c=0.0222171f //x=2.025 //y=5.2
c168 ( 2 0 ) capacitor c=0.0173935f //x=2.705 //y=2.59
c169 ( 1 0 ) capacitor c=0.111807f //x=4.325 //y=2.59
r170 (  68 69 ) resistor r=32.4568 //w=0.214 //l=0.075 //layer=ply \
 //thickness=0.18 //x=4.285 //y=4.795 //x2=4.285 //y2=4.87
r171 (  66 68 ) resistor r=20.271 //w=0.214 //l=0.09 //layer=ply \
 //thickness=0.18 //x=4.285 //y=4.705 //x2=4.285 //y2=4.795
r172 (  61 75 ) resistor r=45.1352 //w=0.168 //l=0.173853 //layer=ply \
 //thickness=0.18 //x=4.775 //y=1.25 //x2=4.735 //y2=1.405
r173 (  60 74 ) resistor r=45.1352 //w=0.168 //l=0.173853 //layer=ply \
 //thickness=0.18 //x=4.775 //y=0.905 //x2=4.735 //y2=0.75
r174 (  60 61 ) resistor r=176.904 //w=0.094 //l=0.345 //layer=ply \
 //thickness=0.18 //x=4.775 //y=0.905 //x2=4.775 //y2=1.25
r175 (  59 68 ) resistor r=16.5046 //w=0.27 //l=0.135 //layer=ply \
 //thickness=0.18 //x=4.42 //y=4.795 //x2=4.285 //y2=4.795
r176 (  58 62 ) resistor r=26.9307 //w=0.15 //l=0.106066 //layer=ply \
 //thickness=0.18 //x=4.705 //y=4.795 //x2=4.78 //y2=4.87
r177 (  58 59 ) resistor r=146.138 //w=0.094 //l=0.285 //layer=ply \
 //thickness=0.18 //x=4.705 //y=4.795 //x2=4.42 //y2=4.795
r178 (  56 73 ) resistor r=10.701 //w=0.21 //l=0.115 //layer=ply \
 //thickness=0.18 //x=4.4 //y=1.405 //x2=4.285 //y2=1.405
r179 (  55 75 ) resistor r=5.52526 //w=0.168 //l=0.115 //layer=ply \
 //thickness=0.18 //x=4.62 //y=1.405 //x2=4.735 //y2=1.405
r180 (  54 72 ) resistor r=5.52526 //w=0.168 //l=0.115 //layer=ply \
 //thickness=0.18 //x=4.4 //y=0.75 //x2=4.285 //y2=0.75
r181 (  53 74 ) resistor r=5.52526 //w=0.168 //l=0.115 //layer=ply \
 //thickness=0.18 //x=4.62 //y=0.75 //x2=4.735 //y2=0.75
r182 (  53 54 ) resistor r=112.809 //w=0.094 //l=0.22 //layer=ply \
 //thickness=0.18 //x=4.62 //y=0.75 //x2=4.4 //y2=0.75
r183 (  49 71 ) resistor r=34.8111 //w=0.27 //l=0.264953 //layer=ply \
 //thickness=0.18 //x=4.245 //y=1.915 //x2=4.44 //y2=2.08
r184 (  48 73 ) resistor r=39.5823 //w=0.21 //l=0.173853 //layer=ply \
 //thickness=0.18 //x=4.245 //y=1.56 //x2=4.285 //y2=1.405
r185 (  48 49 ) resistor r=182.032 //w=0.094 //l=0.355 //layer=ply \
 //thickness=0.18 //x=4.245 //y=1.56 //x2=4.245 //y2=1.915
r186 (  47 73 ) resistor r=39.5823 //w=0.21 //l=0.173853 //layer=ply \
 //thickness=0.18 //x=4.245 //y=1.25 //x2=4.285 //y2=1.405
r187 (  46 72 ) resistor r=45.1352 //w=0.168 //l=0.173853 //layer=ply \
 //thickness=0.18 //x=4.245 //y=0.905 //x2=4.285 //y2=0.75
r188 (  46 47 ) resistor r=176.904 //w=0.094 //l=0.345 //layer=ply \
 //thickness=0.18 //x=4.245 //y=0.905 //x2=4.245 //y2=1.25
r189 (  45 62 ) resistor r=592.245 //w=0.094 //l=1.155 //layer=ply \
 //thickness=0.18 //x=4.78 //y=6.025 //x2=4.78 //y2=4.87
r190 (  44 69 ) resistor r=592.245 //w=0.094 //l=1.155 //layer=ply \
 //thickness=0.18 //x=4.34 //y=6.025 //x2=4.34 //y2=4.87
r191 (  43 55 ) resistor r=56.4043 //w=0.094 //l=0.11 //layer=ply \
 //thickness=0.18 //x=4.51 //y=1.405 //x2=4.62 //y2=1.405
r192 (  43 56 ) resistor r=56.4043 //w=0.094 //l=0.11 //layer=ply \
 //thickness=0.18 //x=4.51 //y=1.405 //x2=4.4 //y2=1.405
r193 (  41 66 ) resistor r=152 //w=0.17 //l=0.17 //layer=licon //count=1 \
 //x=4.285 //y=4.705 //x2=4.285 //y2=4.705
r194 (  41 42 ) resistor r=7.81102 //w=0.254 //l=0.155 //layer=li \
 //thickness=0.1 //x=4.285 //y=4.705 //x2=4.44 //y2=4.705
r195 (  35 71 ) resistor r=152 //w=0.17 //l=0.17 //layer=licon //count=1 \
 //x=4.44 //y=2.08 //x2=4.44 //y2=2.08
r196 (  35 38 ) resistor r=34.9091 //w=0.187 //l=0.51 //layer=li \
 //thickness=0.1 //x=4.44 //y=2.08 //x2=4.44 //y2=2.59
r197 (  33 42 ) resistor r=3.23951 //w=0.254 //l=0.165 //layer=li \
 //thickness=0.1 //x=4.44 //y=4.54 //x2=4.44 //y2=4.705
r198 (  33 38 ) resistor r=133.476 //w=0.187 //l=1.95 //layer=li \
 //thickness=0.1 //x=4.44 //y=4.54 //x2=4.44 //y2=2.59
r199 (  30 32 ) resistor r=172.834 //w=0.187 //l=2.525 //layer=li \
 //thickness=0.1 //x=2.59 //y=5.115 //x2=2.59 //y2=2.59
r200 (  29 32 ) resistor r=58.1818 //w=0.187 //l=0.85 //layer=li \
 //thickness=0.1 //x=2.59 //y=1.74 //x2=2.59 //y2=2.59
r201 (  27 29 ) resistor r=7.15173 //w=0.17 //l=0.120208 //layer=li \
 //thickness=0.1 //x=2.505 //y=1.655 //x2=2.59 //y2=1.74
r202 (  27 28 ) resistor r=18.4813 //w=0.187 //l=0.27 //layer=li \
 //thickness=0.1 //x=2.505 //y=1.655 //x2=2.235 //y2=1.655
r203 (  26 39 ) resistor r=5.4201 //w=0.17 //l=0.085 //layer=li \
 //thickness=0.1 //x=2.195 //y=5.2 //x2=2.11 //y2=5.2
r204 (  25 30 ) resistor r=7.15173 //w=0.17 //l=0.120208 //layer=li \
 //thickness=0.1 //x=2.505 //y=5.2 //x2=2.59 //y2=5.115
r205 (  25 26 ) resistor r=21.2193 //w=0.187 //l=0.31 //layer=li \
 //thickness=0.1 //x=2.505 //y=5.2 //x2=2.195 //y2=5.2
r206 (  21 28 ) resistor r=7.15173 //w=0.17 //l=0.120208 //layer=li \
 //thickness=0.1 //x=2.15 //y=1.57 //x2=2.235 //y2=1.655
r207 (  21 76 ) resistor r=39.016 //w=0.187 //l=0.57 //layer=li \
 //thickness=0.1 //x=2.15 //y=1.57 //x2=2.15 //y2=1
r208 (  15 39 ) resistor r=1.40859 //w=0.34 //l=0.085 //layer=li \
 //thickness=0.1 //x=2.11 //y=5.285 //x2=2.11 //y2=5.2
r209 (  15 79 ) resistor r=30.1176 //w=0.187 //l=0.44 //layer=li \
 //thickness=0.1 //x=2.11 //y=5.285 //x2=2.11 //y2=5.725
r210 (  13 39 ) resistor r=5.4201 //w=0.17 //l=0.085 //layer=li \
 //thickness=0.1 //x=2.025 //y=5.2 //x2=2.11 //y2=5.2
r211 (  13 14 ) resistor r=48.5989 //w=0.187 //l=0.71 //layer=li \
 //thickness=0.1 //x=2.025 //y=5.2 //x2=1.315 //y2=5.2
r212 (  7 14 ) resistor r=7.15173 //w=0.17 //l=0.120208 //layer=li \
 //thickness=0.1 //x=1.23 //y=5.285 //x2=1.315 //y2=5.2
r213 (  7 78 ) resistor r=30.1176 //w=0.187 //l=0.44 //layer=li \
 //thickness=0.1 //x=1.23 //y=5.285 //x2=1.23 //y2=5.725
r214 (  6 38 ) resistor r=9.3 //w=0.17 //l=0.17 //layer=mcon //count=1 \
 //x=4.44 //y=2.59 //x2=4.44 //y2=2.59
r215 (  4 32 ) resistor r=9.3 //w=0.17 //l=0.17 //layer=mcon //count=1 \
 //x=2.59 //y=2.59 //x2=2.59 //y2=2.59
r216 (  2 4 ) resistor r=0.0717383 //w=0.224 //l=0.115 //layer=m1 \
 //thickness=0.36 //x=2.705 //y=2.59 //x2=2.59 //y2=2.59
r217 (  1 6 ) resistor r=0.0717383 //w=0.224 //l=0.115 //layer=m1 \
 //thickness=0.36 //x=4.325 //y=2.59 //x2=4.44 //y2=2.59
r218 (  1 2 ) resistor r=1.5458 //w=0.131 //l=1.62 //layer=m1 //thickness=0.36 \
 //x=4.325 //y=2.59 //x2=2.705 //y2=2.59
ends PM_AO3X1_PCELL\%noxref_3

subckt PM_AO3X1_PCELL\%noxref_4 ( 1 2 11 12 23 24 25 30 32 40 41 42 43 44 45 \
 46 50 51 52 54 60 61 63 71 72 75 )
c133 ( 75 0 ) capacitor c=0.0159573f //x=5.295 //y=5.025
c134 ( 72 0 ) capacitor c=0.00905936f //x=5.29 //y=0.905
c135 ( 71 0 ) capacitor c=0.007684f //x=4.32 //y=0.905
c136 ( 63 0 ) capacitor c=0.0517753f //x=7.4 //y=2.085
c137 ( 61 0 ) capacitor c=0.0435629f //x=8.04 //y=1.255
c138 ( 60 0 ) capacitor c=0.0200386f //x=8.04 //y=0.91
c139 ( 54 0 ) capacitor c=0.0152946f //x=7.885 //y=1.41
c140 ( 52 0 ) capacitor c=0.0157804f //x=7.885 //y=0.755
c141 ( 51 0 ) capacitor c=0.0524991f //x=7.63 //y=4.79
c142 ( 50 0 ) capacitor c=0.0322983f //x=7.92 //y=4.79
c143 ( 46 0 ) capacitor c=0.0290017f //x=7.51 //y=1.92
c144 ( 45 0 ) capacitor c=0.0250027f //x=7.51 //y=1.565
c145 ( 44 0 ) capacitor c=0.0234316f //x=7.51 //y=1.255
c146 ( 43 0 ) capacitor c=0.0200596f //x=7.51 //y=0.91
c147 ( 42 0 ) capacitor c=0.154218f //x=7.995 //y=6.02
c148 ( 41 0 ) capacitor c=0.154243f //x=7.555 //y=6.02
c149 ( 39 0 ) capacitor c=0.00710337f //x=5.48 //y=1.655
c150 ( 32 0 ) capacitor c=0.0948753f //x=7.4 //y=2.085
c151 ( 30 0 ) capacitor c=0.11371f //x=5.92 //y=2.59
c152 ( 25 0 ) capacitor c=0.0160526f //x=5.835 //y=1.655
c153 ( 24 0 ) capacitor c=0.00499395f //x=5.525 //y=5.21
c154 ( 23 0 ) capacitor c=0.0166531f //x=5.835 //y=5.21
c155 ( 12 0 ) capacitor c=0.00220849f //x=4.595 //y=1.655
c156 ( 11 0 ) capacitor c=0.0280953f //x=5.395 //y=1.655
c157 ( 2 0 ) capacitor c=0.0119578f //x=6.035 //y=2.59
c158 ( 1 0 ) capacitor c=0.093442f //x=7.285 //y=2.59
r159 (  63 64 ) resistor r=17.5563 //w=0.302 //l=0.11 //layer=ply \
 //thickness=0.18 //x=7.4 //y=2.085 //x2=7.51 //y2=2.085
r160 (  61 70 ) resistor r=45.1352 //w=0.168 //l=0.173853 //layer=ply \