// File: AO3X1.spi.AO3X1.pxi
// Created: Tue Oct 15 15:44:44 2024
// 
simulator lang=spectre
x_PM_AO3X1\%GND ( GND N_GND_c_13_p N_GND_c_70_p N_GND_c_1_p N_GND_c_77_p \
 N_GND_c_96_p N_GND_c_5_p N_GND_c_21_p N_GND_c_35_p N_GND_c_38_p N_GND_c_27_p \
 N_GND_c_53_p N_GND_c_2_p N_GND_c_3_p N_GND_c_4_p N_GND_M0_noxref_d \
 N_GND_M2_noxref_s N_GND_M4_noxref_s )  PM_AO3X1\%GND
x_PM_AO3X1\%VDD ( VDD N_VDD_c_146_p N_VDD_c_128_p N_VDD_c_129_p N_VDD_c_140_p \
 N_VDD_c_143_p N_VDD_c_166_p N_VDD_c_123_n N_VDD_c_124_n N_VDD_c_125_n \
 N_VDD_c_126_n N_VDD_M5_noxref_s N_VDD_M6_noxref_d N_VDD_M8_noxref_d \
 N_VDD_M9_noxref_d N_VDD_M13_noxref_s N_VDD_M14_noxref_d )  PM_AO3X1\%VDD
x_PM_AO3X1\%noxref_3 ( N_noxref_3_c_225_n N_noxref_3_c_228_n \
 N_noxref_3_c_248_n N_noxref_3_c_251_n N_noxref_3_c_253_n N_noxref_3_c_229_n \
 N_noxref_3_c_324_p N_noxref_3_c_231_n N_noxref_3_c_233_n N_noxref_3_c_312_p \
 N_noxref_3_c_258_n N_noxref_3_M2_noxref_g N_noxref_3_M9_noxref_g \
 N_noxref_3_M10_noxref_g N_noxref_3_c_236_n N_noxref_3_c_286_p \
 N_noxref_3_c_287_p N_noxref_3_c_238_n N_noxref_3_c_240_n N_noxref_3_c_290_p \
 N_noxref_3_c_333_p N_noxref_3_c_241_n N_noxref_3_c_243_n N_noxref_3_c_265_n \
 N_noxref_3_M1_noxref_d N_noxref_3_M5_noxref_d N_noxref_3_M7_noxref_d )  \
 PM_AO3X1\%noxref_3
x_PM_AO3X1\%noxref_4 ( N_noxref_4_c_369_n N_noxref_4_c_373_n \
 N_noxref_4_c_375_n N_noxref_4_c_432_n N_noxref_4_c_412_n N_noxref_4_c_413_n \
 N_noxref_4_c_379_n N_noxref_4_c_384_n N_noxref_4_c_386_n \
 N_noxref_4_M4_noxref_g N_noxref_4_M13_noxref_g N_noxref_4_M14_noxref_g \
 N_noxref_4_c_391_n N_noxref_4_c_490_p N_noxref_4_c_491_p N_noxref_4_c_393_n \
 N_noxref_4_c_424_n N_noxref_4_c_425_n N_noxref_4_c_394_n N_noxref_4_c_482_p \
 N_noxref_4_c_395_n N_noxref_4_c_397_n N_noxref_4_c_398_n \
 N_noxref_4_M2_noxref_d N_noxref_4_M3_noxref_d N_noxref_4_M11_noxref_d )  \
 PM_AO3X1\%noxref_4
x_PM_AO3X1\%A ( A A A A A A A N_A_c_502_n N_A_M0_noxref_g N_A_M5_noxref_g \
 N_A_M6_noxref_g N_A_c_503_n N_A_c_505_n N_A_c_506_n N_A_c_507_n N_A_c_508_n \
 N_A_c_509_n N_A_c_510_n N_A_c_512_n N_A_c_519_n )  PM_AO3X1\%A
x_PM_AO3X1\%B ( B B B B B B B N_B_c_566_n N_B_c_557_n N_B_M1_noxref_g \
 N_B_M7_noxref_g N_B_M8_noxref_g N_B_c_575_n N_B_c_576_n N_B_c_577_n \
 N_B_c_578_n N_B_c_580_n N_B_c_581_n N_B_c_583_n N_B_c_584_n N_B_c_586_n \
 N_B_c_587_n N_B_c_589_n )  PM_AO3X1\%B
x_PM_AO3X1\%noxref_7 ( N_noxref_7_c_645_n N_noxref_7_c_621_n \
 N_noxref_7_c_625_n N_noxref_7_c_629_n N_noxref_7_c_630_n N_noxref_7_c_633_n \
 N_noxref_7_M0_noxref_s )  PM_AO3X1\%noxref_7
x_PM_AO3X1\%C ( C C C C C C C N_C_c_685_n N_C_c_672_n N_C_M3_noxref_g \
 N_C_M11_noxref_g N_C_M12_noxref_g N_C_c_674_n N_C_c_697_n N_C_c_700_n \
 N_C_c_724_n N_C_c_676_n N_C_c_677_n N_C_c_678_n N_C_c_704_n N_C_c_705_n \
 N_C_c_707_n N_C_c_708_n )  PM_AO3X1\%C
x_PM_AO3X1\%noxref_9 ( N_noxref_9_c_743_n N_noxref_9_c_747_n \
 N_noxref_9_c_748_n N_noxref_9_c_749_n N_noxref_9_M9_noxref_s \
 N_noxref_9_M10_noxref_d N_noxref_9_M12_noxref_d )  PM_AO3X1\%noxref_9
x_PM_AO3X1\%Y ( Y Y Y Y Y Y Y N_Y_c_787_n N_Y_c_810_n N_Y_c_797_n N_Y_c_799_n \
 N_Y_M4_noxref_d N_Y_M13_noxref_d )  PM_AO3X1\%Y
cc_1 ( N_GND_c_1_p N_VDD_c_123_n ) capacitor c=0.00989031f //x=0.74 //y=0 \
 //x2=0.74 //y2=7.4
cc_2 ( N_GND_c_2_p N_VDD_c_124_n ) capacitor c=0.00962895f //x=3.33 //y=0 \
 //x2=3.33 //y2=7.4
cc_3 ( N_GND_c_3_p N_VDD_c_125_n ) capacitor c=0.00962895f //x=6.66 //y=0 \
 //x2=6.66 //y2=7.4
cc_4 ( N_GND_c_4_p N_VDD_c_126_n ) capacitor c=0.00989031f //x=8.26 //y=0 \
 //x2=8.14 //y2=7.4
cc_5 ( N_GND_c_5_p N_noxref_3_c_225_n ) capacitor c=7.22787e-19 //x=4.425 \
 //y=0.53 //x2=4.325 //y2=2.59
cc_6 ( N_GND_c_2_p N_noxref_3_c_225_n ) capacitor c=0.0435449f //x=3.33 //y=0 \
 //x2=4.325 //y2=2.59
cc_7 ( N_GND_M2_noxref_s N_noxref_3_c_225_n ) capacitor c=0.00494344f //x=3.89 \
 //y=0.365 //x2=4.325 //y2=2.59
cc_8 ( N_GND_c_2_p N_noxref_3_c_228_n ) capacitor c=0.00102529f //x=3.33 //y=0 \
 //x2=2.705 //y2=2.59
cc_9 ( N_GND_c_2_p N_noxref_3_c_229_n ) capacitor c=0.0431271f //x=3.33 //y=0 \
 //x2=2.505 //y2=1.655
cc_10 ( N_GND_M2_noxref_s N_noxref_3_c_229_n ) capacitor c=3.00901e-19 \
 //x=3.89 //y=0.365 //x2=2.505 //y2=1.655
cc_11 ( N_GND_c_1_p N_noxref_3_c_231_n ) capacitor c=0.00101801f //x=0.74 \
 //y=0 //x2=2.59 //y2=2.59
cc_12 ( N_GND_c_2_p N_noxref_3_c_231_n ) capacitor c=5.56859e-19 //x=3.33 \
 //y=0 //x2=2.59 //y2=2.59
cc_13 ( N_GND_c_13_p N_noxref_3_c_233_n ) capacitor c=6.7762e-19 //x=8.14 \
 //y=0 //x2=4.44 //y2=2.08
cc_14 ( N_GND_c_5_p N_noxref_3_c_233_n ) capacitor c=0.00133118f //x=4.425 \
 //y=0.53 //x2=4.44 //y2=2.08
cc_15 ( N_GND_c_2_p N_noxref_3_c_233_n ) capacitor c=0.0147015f //x=3.33 //y=0 \
 //x2=4.44 //y2=2.08
cc_16 ( N_GND_c_5_p N_noxref_3_c_236_n ) capacitor c=0.0122561f //x=4.425 \
 //y=0.53 //x2=4.245 //y2=0.905
cc_17 ( N_GND_M2_noxref_s N_noxref_3_c_236_n ) capacitor c=0.0318086f //x=3.89 \
 //y=0.365 //x2=4.245 //y2=0.905
cc_18 ( N_GND_c_5_p N_noxref_3_c_238_n ) capacitor c=2.1838e-19 //x=4.425 \
 //y=0.53 //x2=4.245 //y2=1.915
cc_19 ( N_GND_c_2_p N_noxref_3_c_238_n ) capacitor c=0.0131707f //x=3.33 //y=0 \
 //x2=4.245 //y2=1.915
cc_20 ( N_GND_M2_noxref_s N_noxref_3_c_240_n ) capacitor c=0.00476335f \
 //x=3.89 //y=0.365 //x2=4.62 //y2=0.75
cc_21 ( N_GND_c_21_p N_noxref_3_c_241_n ) capacitor c=0.0113279f //x=4.91 \
 //y=0.53 //x2=4.775 //y2=0.905
cc_22 ( N_GND_M2_noxref_s N_noxref_3_c_241_n ) capacitor c=0.00514143f \
 //x=3.89 //y=0.365 //x2=4.775 //y2=0.905
cc_23 ( N_GND_M2_noxref_s N_noxref_3_c_243_n ) capacitor c=8.33128e-19 \
 //x=3.89 //y=0.365 //x2=4.775 //y2=1.25
cc_24 ( N_GND_c_1_p N_noxref_3_M1_noxref_d ) capacitor c=8.58106e-19 //x=0.74 \
 //y=0 //x2=1.96 //y2=0.905
cc_25 ( N_GND_c_2_p N_noxref_3_M1_noxref_d ) capacitor c=0.00616547f //x=3.33 \
 //y=0 //x2=1.96 //y2=0.905
cc_26 ( N_GND_M0_noxref_d N_noxref_3_M1_noxref_d ) capacitor c=0.00143464f \
 //x=0.99 //y=0.865 //x2=1.96 //y2=0.905
cc_27 ( N_GND_c_27_p N_noxref_4_c_369_n ) capacitor c=2.8021e-19 //x=7.69 \
 //y=0.535 //x2=7.285 //y2=2.59
cc_28 ( N_GND_c_3_p N_noxref_4_c_369_n ) capacitor c=0.0424932f //x=6.66 //y=0 \
 //x2=7.285 //y2=2.59
cc_29 ( N_GND_M2_noxref_s N_noxref_4_c_369_n ) capacitor c=3.07321e-19 \
 //x=3.89 //y=0.365 //x2=7.285 //y2=2.59
cc_30 ( N_GND_M4_noxref_s N_noxref_4_c_369_n ) capacitor c=0.00380483f \
 //x=7.155 //y=0.37 //x2=7.285 //y2=2.59
cc_31 ( N_GND_c_3_p N_noxref_4_c_373_n ) capacitor c=9.11674e-19 //x=6.66 \
 //y=0 //x2=6.035 //y2=2.59
cc_32 ( N_GND_M2_noxref_s N_noxref_4_c_373_n ) capacitor c=0.00162156f \
 //x=3.89 //y=0.365 //x2=6.035 //y2=2.59
cc_33 ( N_GND_c_13_p N_noxref_4_c_375_n ) capacitor c=0.00359057f //x=8.14 \
 //y=0 //x2=5.395 //y2=1.655
cc_34 ( N_GND_c_21_p N_noxref_4_c_375_n ) capacitor c=0.00381844f //x=4.91 \
 //y=0.53 //x2=5.395 //y2=1.655
cc_35 ( N_GND_c_35_p N_noxref_4_c_375_n ) capacitor c=0.00323369f //x=5.395 \
 //y=0.53 //x2=5.395 //y2=1.655
cc_36 ( N_GND_M2_noxref_s N_noxref_4_c_375_n ) capacitor c=0.0173679f //x=3.89 \
 //y=0.365 //x2=5.395 //y2=1.655
cc_37 ( N_GND_c_13_p N_noxref_4_c_379_n ) capacitor c=0.00232664f //x=8.14 \
 //y=0 //x2=5.835 //y2=1.655
cc_38 ( N_GND_c_38_p N_noxref_4_c_379_n ) capacitor c=0.0047903f //x=5.88 \
 //y=0.53 //x2=5.835 //y2=1.655
cc_39 ( N_GND_c_3_p N_noxref_4_c_379_n ) capacitor c=0.0432715f //x=6.66 //y=0 \
 //x2=5.835 //y2=1.655
cc_40 ( N_GND_M2_noxref_s N_noxref_4_c_379_n ) capacitor c=0.0145566f //x=3.89 \
 //y=0.365 //x2=5.835 //y2=1.655
cc_41 ( N_GND_M4_noxref_s N_noxref_4_c_379_n ) capacitor c=3.53679e-19 \
 //x=7.155 //y=0.37 //x2=5.835 //y2=1.655
cc_42 ( N_GND_c_2_p N_noxref_4_c_384_n ) capacitor c=9.64732e-19 //x=3.33 \
 //y=0 //x2=5.92 //y2=2.59
cc_43 ( N_GND_c_3_p N_noxref_4_c_384_n ) capacitor c=5.56859e-19 //x=6.66 \
 //y=0 //x2=5.92 //y2=2.59
cc_44 ( N_GND_c_13_p N_noxref_4_c_386_n ) capacitor c=0.00203213f //x=8.14 \
 //y=0 //x2=7.4 //y2=2.085
cc_45 ( N_GND_c_27_p N_noxref_4_c_386_n ) capacitor c=7.79915e-19 //x=7.69 \
 //y=0.535 //x2=7.4 //y2=2.085
cc_46 ( N_GND_c_3_p N_noxref_4_c_386_n ) capacitor c=0.0264037f //x=6.66 //y=0 \
 //x2=7.4 //y2=2.085
cc_47 ( N_GND_c_4_p N_noxref_4_c_386_n ) capacitor c=0.00135052f //x=8.26 \
 //y=0 //x2=7.4 //y2=2.085
cc_48 ( N_GND_M4_noxref_s N_noxref_4_c_386_n ) capacitor c=0.0105356f \
 //x=7.155 //y=0.37 //x2=7.4 //y2=2.085
cc_49 ( N_GND_c_27_p N_noxref_4_c_391_n ) capacitor c=0.0121126f //x=7.69 \
 //y=0.535 //x2=7.51 //y2=0.91
cc_50 ( N_GND_M4_noxref_s N_noxref_4_c_391_n ) capacitor c=0.0317181f \
 //x=7.155 //y=0.37 //x2=7.51 //y2=0.91
cc_51 ( N_GND_c_3_p N_noxref_4_c_393_n ) capacitor c=0.00552709f //x=6.66 \
 //y=0 //x2=7.51 //y2=1.92
cc_52 ( N_GND_M4_noxref_s N_noxref_4_c_394_n ) capacitor c=0.00483274f \
 //x=7.155 //y=0.37 //x2=7.885 //y2=0.755
cc_53 ( N_GND_c_53_p N_noxref_4_c_395_n ) capacitor c=0.0118602f //x=8.175 \
 //y=0.535 //x2=8.04 //y2=0.91
cc_54 ( N_GND_M4_noxref_s N_noxref_4_c_395_n ) capacitor c=0.0143355f \
 //x=7.155 //y=0.37 //x2=8.04 //y2=0.91
cc_55 ( N_GND_M4_noxref_s N_noxref_4_c_397_n ) capacitor c=0.0074042f \
 //x=7.155 //y=0.37 //x2=8.04 //y2=1.255
cc_56 ( N_GND_c_27_p N_noxref_4_c_398_n ) capacitor c=2.1838e-19 //x=7.69 \
 //y=0.535 //x2=7.4 //y2=2.085
cc_57 ( N_GND_c_3_p N_noxref_4_c_398_n ) capacitor c=0.0108179f //x=6.66 //y=0 \
 //x2=7.4 //y2=2.085
cc_58 ( N_GND_M4_noxref_s N_noxref_4_c_398_n ) capacitor c=0.00652238f \
 //x=7.155 //y=0.37 //x2=7.4 //y2=2.085
cc_59 ( N_GND_c_13_p N_noxref_4_M2_noxref_d ) capacitor c=0.00175924f //x=8.14 \
 //y=0 //x2=4.32 //y2=0.905
cc_60 ( N_GND_c_2_p N_noxref_4_M2_noxref_d ) capacitor c=0.00416273f //x=3.33 \
 //y=0 //x2=4.32 //y2=0.905
cc_61 ( N_GND_c_3_p N_noxref_4_M2_noxref_d ) capacitor c=2.57516e-19 //x=6.66 \
 //y=0 //x2=4.32 //y2=0.905
cc_62 ( N_GND_c_4_p N_noxref_4_M2_noxref_d ) capacitor c=2.31043e-19 //x=8.26 \
 //y=0 //x2=4.32 //y2=0.905
cc_63 ( N_GND_M2_noxref_s N_noxref_4_M2_noxref_d ) capacitor c=0.0769466f \
 //x=3.89 //y=0.365 //x2=4.32 //y2=0.905
cc_64 ( N_GND_c_13_p N_noxref_4_M3_noxref_d ) capacitor c=0.00195394f //x=8.14 \
 //y=0 //x2=5.29 //y2=0.905
cc_65 ( N_GND_c_3_p N_noxref_4_M3_noxref_d ) capacitor c=0.00609243f //x=6.66 \
 //y=0 //x2=5.29 //y2=0.905
cc_66 ( N_GND_c_4_p N_noxref_4_M3_noxref_d ) capacitor c=2.31043e-19 //x=8.26 \
 //y=0 //x2=5.29 //y2=0.905
cc_67 ( N_GND_M2_noxref_s N_noxref_4_M3_noxref_d ) capacitor c=0.0610175f \
 //x=3.89 //y=0.365 //x2=5.29 //y2=0.905
cc_68 ( N_GND_M4_noxref_s N_noxref_4_M3_noxref_d ) capacitor c=2.04477e-19 \
 //x=7.155 //y=0.37 //x2=5.29 //y2=0.905
cc_69 ( N_GND_c_1_p N_A_c_502_n ) capacitor c=0.0180518f //x=0.74 //y=0 \
 //x2=1.11 //y2=2.08
cc_70 ( N_GND_c_70_p N_A_c_503_n ) capacitor c=0.00135046f //x=1.095 //y=0 \
 //x2=0.915 //y2=0.865
cc_71 ( N_GND_M0_noxref_d N_A_c_503_n ) capacitor c=0.00220047f //x=0.99 \
 //y=0.865 //x2=0.915 //y2=0.865
cc_72 ( N_GND_M0_noxref_d N_A_c_505_n ) capacitor c=0.00255985f //x=0.99 \
 //y=0.865 //x2=0.915 //y2=1.21
cc_73 ( N_GND_c_1_p N_A_c_506_n ) capacitor c=0.00264481f //x=0.74 //y=0 \
 //x2=0.915 //y2=1.52
cc_74 ( N_GND_c_1_p N_A_c_507_n ) capacitor c=0.0121947f //x=0.74 //y=0 \
 //x2=0.915 //y2=1.915
cc_75 ( N_GND_M0_noxref_d N_A_c_508_n ) capacitor c=0.0131326f //x=0.99 \
 //y=0.865 //x2=1.29 //y2=0.71
cc_76 ( N_GND_M0_noxref_d N_A_c_509_n ) capacitor c=0.00193127f //x=0.99 \
 //y=0.865 //x2=1.29 //y2=1.365
cc_77 ( N_GND_c_77_p N_A_c_510_n ) capacitor c=0.00130622f //x=3.16 //y=0 \
 //x2=1.445 //y2=0.865
cc_78 ( N_GND_M0_noxref_d N_A_c_510_n ) capacitor c=0.00257848f //x=0.99 \
 //y=0.865 //x2=1.445 //y2=0.865
cc_79 ( N_GND_M0_noxref_d N_A_c_512_n ) capacitor c=0.00255985f //x=0.99 \
 //y=0.865 //x2=1.445 //y2=1.21
cc_80 ( N_GND_c_1_p N_B_c_557_n ) capacitor c=9.2064e-19 //x=0.74 //y=0 \
 //x2=1.85 //y2=2.08
cc_81 ( N_GND_c_2_p N_B_c_557_n ) capacitor c=0.00110071f //x=3.33 //y=0 \
 //x2=1.85 //y2=2.08
cc_82 ( N_GND_c_13_p N_noxref_7_c_621_n ) capacitor c=0.00710948f //x=8.14 \
 //y=0 //x2=1.58 //y2=1.58
cc_83 ( N_GND_c_70_p N_noxref_7_c_621_n ) capacitor c=0.00111428f //x=1.095 \
 //y=0 //x2=1.58 //y2=1.58
cc_84 ( N_GND_c_77_p N_noxref_7_c_621_n ) capacitor c=0.00180846f //x=3.16 \
 //y=0 //x2=1.58 //y2=1.58
cc_85 ( N_GND_M0_noxref_d N_noxref_7_c_621_n ) capacitor c=0.0090983f //x=0.99 \
 //y=0.865 //x2=1.58 //y2=1.58
cc_86 ( N_GND_c_13_p N_noxref_7_c_625_n ) capacitor c=0.00723598f //x=8.14 \
 //y=0 //x2=1.665 //y2=0.615
cc_87 ( N_GND_c_77_p N_noxref_7_c_625_n ) capacitor c=0.0146208f //x=3.16 \
 //y=0 //x2=1.665 //y2=0.615
cc_88 ( N_GND_c_4_p N_noxref_7_c_625_n ) capacitor c=0.00145873f //x=8.26 \
 //y=0 //x2=1.665 //y2=0.615
cc_89 ( N_GND_M0_noxref_d N_noxref_7_c_625_n ) capacitor c=0.033812f //x=0.99 \
 //y=0.865 //x2=1.665 //y2=0.615
cc_90 ( N_GND_c_1_p N_noxref_7_c_629_n ) capacitor c=2.91423e-19 //x=0.74 \
 //y=0 //x2=1.665 //y2=1.495
cc_91 ( N_GND_c_13_p N_noxref_7_c_630_n ) capacitor c=0.0199727f //x=8.14 \
 //y=0 //x2=2.55 //y2=0.53
cc_92 ( N_GND_c_77_p N_noxref_7_c_630_n ) capacitor c=0.0371035f //x=3.16 \
 //y=0 //x2=2.55 //y2=0.53
cc_93 ( N_GND_c_4_p N_noxref_7_c_630_n ) capacitor c=0.00198956f //x=8.26 \
 //y=0 //x2=2.55 //y2=0.53
cc_94 ( N_GND_c_13_p N_noxref_7_c_633_n ) capacitor c=0.00719615f //x=8.14 \
 //y=0 //x2=2.635 //y2=0.615
cc_95 ( N_GND_c_77_p N_noxref_7_c_633_n ) capacitor c=0.0144264f //x=3.16 \
 //y=0 //x2=2.635 //y2=0.615
cc_96 ( N_GND_c_96_p N_noxref_7_c_633_n ) capacitor c=9.02073e-19 //x=4.025 \
 //y=0.445 //x2=2.635 //y2=0.615
cc_97 ( N_GND_c_2_p N_noxref_7_c_633_n ) capacitor c=0.0431718f //x=3.33 //y=0 \
 //x2=2.635 //y2=0.615
cc_98 ( N_GND_c_4_p N_noxref_7_c_633_n ) capacitor c=0.00145015f //x=8.26 \
 //y=0 //x2=2.635 //y2=0.615
cc_99 ( N_GND_c_13_p N_noxref_7_M0_noxref_s ) capacitor c=0.00723598f //x=8.14 \
 //y=0 //x2=0.56 //y2=0.365
cc_100 ( N_GND_c_70_p N_noxref_7_M0_noxref_s ) capacitor c=0.0146208f \
 //x=1.095 //y=0 //x2=0.56 //y2=0.365
cc_101 ( N_GND_c_1_p N_noxref_7_M0_noxref_s ) capacitor c=0.0594057f //x=0.74 \
 //y=0 //x2=0.56 //y2=0.365
cc_102 ( N_GND_c_2_p N_noxref_7_M0_noxref_s ) capacitor c=0.00198043f //x=3.33 \
 //y=0 //x2=0.56 //y2=0.365
cc_103 ( N_GND_c_4_p N_noxref_7_M0_noxref_s ) capacitor c=0.00145873f //x=8.26 \
 //y=0 //x2=0.56 //y2=0.365
cc_104 ( N_GND_M0_noxref_d N_noxref_7_M0_noxref_s ) capacitor c=0.0334197f \
 //x=0.99 //y=0.865 //x2=0.56 //y2=0.365
cc_105 ( N_GND_M2_noxref_s N_noxref_7_M0_noxref_s ) capacitor c=9.02073e-19 \
 //x=3.89 //y=0.365 //x2=0.56 //y2=0.365
cc_106 ( N_GND_c_2_p N_C_c_672_n ) capacitor c=0.00112835f //x=3.33 //y=0 \
 //x2=5.18 //y2=2.08
cc_107 ( N_GND_c_3_p N_C_c_672_n ) capacitor c=0.00110071f //x=6.66 //y=0 \
 //x2=5.18 //y2=2.08
cc_108 ( N_GND_c_35_p N_C_c_674_n ) capacitor c=0.0109802f //x=5.395 //y=0.53 \
 //x2=5.215 //y2=0.905
cc_109 ( N_GND_M2_noxref_s N_C_c_674_n ) capacitor c=0.00590563f //x=3.89 \
 //y=0.365 //x2=5.215 //y2=0.905
cc_110 ( N_GND_M2_noxref_s N_C_c_676_n ) capacitor c=0.00466751f //x=3.89 \
 //y=0.365 //x2=5.59 //y2=0.75
cc_111 ( N_GND_M2_noxref_s N_C_c_677_n ) capacitor c=0.00316186f //x=3.89 \
 //y=0.365 //x2=5.59 //y2=1.405
cc_112 ( N_GND_c_38_p N_C_c_678_n ) capacitor c=0.0112321f //x=5.88 //y=0.53 \
 //x2=5.745 //y2=0.905
cc_113 ( N_GND_M2_noxref_s N_C_c_678_n ) capacitor c=0.0142835f //x=3.89 \
 //y=0.365 //x2=5.745 //y2=0.905
cc_114 ( N_GND_c_3_p Y ) capacitor c=9.57726e-19 //x=6.66 //y=0 //x2=8.14 \
 //y2=2.22
cc_115 ( N_GND_c_13_p N_Y_c_787_n ) capacitor c=0.0021242f //x=8.14 //y=0 \
 //x2=8.055 //y2=2.08
cc_116 ( N_GND_c_4_p N_Y_c_787_n ) capacitor c=0.029556f //x=8.26 //y=0 \
 //x2=8.055 //y2=2.08
cc_117 ( N_GND_M4_noxref_s N_Y_c_787_n ) capacitor c=0.00999304f //x=7.155 \
 //y=0.37 //x2=8.055 //y2=2.08
cc_118 ( N_GND_c_13_p N_Y_M4_noxref_d ) capacitor c=0.00194883f //x=8.14 //y=0 \
 //x2=7.585 //y2=0.91
cc_119 ( N_GND_c_27_p N_Y_M4_noxref_d ) capacitor c=0.0146043f //x=7.69 \
 //y=0.535 //x2=7.585 //y2=0.91
cc_120 ( N_GND_c_3_p N_Y_M4_noxref_d ) capacitor c=0.00924905f //x=6.66 //y=0 \
 //x2=7.585 //y2=0.91
cc_121 ( N_GND_c_4_p N_Y_M4_noxref_d ) capacitor c=0.00973758f //x=8.26 //y=0 \
 //x2=7.585 //y2=0.91
cc_122 ( N_GND_M4_noxref_s N_Y_M4_noxref_d ) capacitor c=0.076995f //x=7.155 \
 //y=0.37 //x2=7.585 //y2=0.91
cc_123 ( N_VDD_c_124_n N_noxref_3_c_225_n ) capacitor c=0.00382812f //x=3.33 \
 //y=7.4 //x2=4.325 //y2=2.59
cc_124 ( N_VDD_c_128_p N_noxref_3_c_248_n ) capacitor c=5.76712e-19 //x=1.585 \
 //y=7.4 //x2=2.025 //y2=5.2
cc_125 ( N_VDD_c_129_p N_noxref_3_c_248_n ) capacitor c=5.76712e-19 //x=2.465 \
 //y=7.4 //x2=2.025 //y2=5.2
cc_126 ( N_VDD_M6_noxref_d N_noxref_3_c_248_n ) capacitor c=0.0132775f \
 //x=1.525 //y=5.02 //x2=2.025 //y2=5.2
cc_127 ( N_VDD_c_123_n N_noxref_3_c_251_n ) capacitor c=0.00989999f //x=0.74 \
 //y=7.4 //x2=1.315 //y2=5.2
cc_128 ( N_VDD_M5_noxref_s N_noxref_3_c_251_n ) capacitor c=0.087833f \
 //x=0.655 //y=5.02 //x2=1.315 //y2=5.2
cc_129 ( N_VDD_c_129_p N_noxref_3_c_253_n ) capacitor c=8.71806e-19 //x=2.465 \
 //y=7.4 //x2=2.505 //y2=5.2
cc_130 ( N_VDD_M8_noxref_d N_noxref_3_c_253_n ) capacitor c=0.0167784f \
 //x=2.405 //y=5.02 //x2=2.505 //y2=5.2
cc_131 ( N_VDD_c_123_n N_noxref_3_c_231_n ) capacitor c=0.00159771f //x=0.74 \
 //y=7.4 //x2=2.59 //y2=2.59
cc_132 ( N_VDD_c_124_n N_noxref_3_c_231_n ) capacitor c=0.0462672f //x=3.33 \
 //y=7.4 //x2=2.59 //y2=2.59
cc_133 ( N_VDD_c_124_n N_noxref_3_c_233_n ) capacitor c=0.0103855f //x=3.33 \
 //y=7.4 //x2=4.44 //y2=2.08
cc_134 ( N_VDD_c_124_n N_noxref_3_c_258_n ) capacitor c=0.00860173f //x=3.33 \
 //y=7.4 //x2=4.285 //y2=4.705
cc_135 ( N_VDD_M9_noxref_d N_noxref_3_c_258_n ) capacitor c=2.85008e-19 \
 //x=4.415 //y=5.025 //x2=4.285 //y2=4.705
cc_136 ( N_VDD_c_140_p N_noxref_3_M9_noxref_g ) capacitor c=0.0067918f \
 //x=4.475 //y=7.4 //x2=4.34 //y2=6.025
cc_137 ( N_VDD_c_124_n N_noxref_3_M9_noxref_g ) capacitor c=0.0105272f \
 //x=3.33 //y=7.4 //x2=4.34 //y2=6.025
cc_138 ( N_VDD_M9_noxref_d N_noxref_3_M9_noxref_g ) capacitor c=0.0156786f \
 //x=4.415 //y=5.025 //x2=4.34 //y2=6.025
cc_139 ( N_VDD_c_143_p N_noxref_3_M10_noxref_g ) capacitor c=0.00678153f \
 //x=6.49 //y=7.4 //x2=4.78 //y2=6.025
cc_140 ( N_VDD_M9_noxref_d N_noxref_3_M10_noxref_g ) capacitor c=0.0183011f \
 //x=4.415 //y=5.025 //x2=4.78 //y2=6.025
cc_141 ( N_VDD_c_124_n N_noxref_3_c_265_n ) capacitor c=0.00890932f //x=3.33 \
 //y=7.4 //x2=4.285 //y2=4.705
cc_142 ( N_VDD_c_146_p N_noxref_3_M5_noxref_d ) capacitor c=0.00719513f \
 //x=8.14 //y=7.4 //x2=1.085 //y2=5.02
cc_143 ( N_VDD_c_128_p N_noxref_3_M5_noxref_d ) capacitor c=0.0138103f \
 //x=1.585 //y=7.4 //x2=1.085 //y2=5.02
cc_144 ( N_VDD_c_124_n N_noxref_3_M5_noxref_d ) capacitor c=6.94454e-19 \
 //x=3.33 //y=7.4 //x2=1.085 //y2=5.02
cc_145 ( N_VDD_c_126_n N_noxref_3_M5_noxref_d ) capacitor c=0.00135231f \
 //x=8.14 //y=7.4 //x2=1.085 //y2=5.02
cc_146 ( N_VDD_M6_noxref_d N_noxref_3_M5_noxref_d ) capacitor c=0.0664752f \
 //x=1.525 //y=5.02 //x2=1.085 //y2=5.02
cc_147 ( N_VDD_c_146_p N_noxref_3_M7_noxref_d ) capacitor c=0.00719513f \
 //x=8.14 //y=7.4 //x2=1.965 //y2=5.02
cc_148 ( N_VDD_c_129_p N_noxref_3_M7_noxref_d ) capacitor c=0.0138379f \
 //x=2.465 //y=7.4 //x2=1.965 //y2=5.02
cc_149 ( N_VDD_c_124_n N_noxref_3_M7_noxref_d ) capacitor c=0.0120541f \
 //x=3.33 //y=7.4 //x2=1.965 //y2=5.02
cc_150 ( N_VDD_c_126_n N_noxref_3_M7_noxref_d ) capacitor c=0.00135231f \
 //x=8.14 //y=7.4 //x2=1.965 //y2=5.02
cc_151 ( N_VDD_M5_noxref_s N_noxref_3_M7_noxref_d ) capacitor c=0.00111971f \
 //x=0.655 //y=5.02 //x2=1.965 //y2=5.02
cc_152 ( N_VDD_M6_noxref_d N_noxref_3_M7_noxref_d ) capacitor c=0.0664752f \
 //x=1.525 //y=5.02 //x2=1.965 //y2=5.02
cc_153 ( N_VDD_M8_noxref_d N_noxref_3_M7_noxref_d ) capacitor c=0.0664752f \
 //x=2.405 //y=5.02 //x2=1.965 //y2=5.02
cc_154 ( N_VDD_c_125_n N_noxref_4_c_369_n ) capacitor c=0.00382812f //x=6.66 \
 //y=7.4 //x2=7.285 //y2=2.59
cc_155 ( N_VDD_c_143_p N_noxref_4_c_412_n ) capacitor c=9.65117e-19 //x=6.49 \
 //y=7.4 //x2=5.835 //y2=5.21
cc_156 ( N_VDD_c_124_n N_noxref_4_c_413_n ) capacitor c=8.9933e-19 //x=3.33 \
 //y=7.4 //x2=5.525 //y2=5.21
cc_157 ( N_VDD_c_124_n N_noxref_4_c_384_n ) capacitor c=0.00155409f //x=3.33 \
 //y=7.4 //x2=5.92 //y2=2.59
cc_158 ( N_VDD_c_125_n N_noxref_4_c_384_n ) capacitor c=0.0462234f //x=6.66 \
 //y=7.4 //x2=5.92 //y2=2.59
cc_159 ( N_VDD_c_125_n N_noxref_4_c_386_n ) capacitor c=0.0272885f //x=6.66 \
 //y=7.4 //x2=7.4 //y2=2.085
cc_160 ( N_VDD_c_126_n N_noxref_4_c_386_n ) capacitor c=0.00144809f //x=8.14 \
 //y=7.4 //x2=7.4 //y2=2.085
cc_161 ( N_VDD_M13_noxref_s N_noxref_4_c_386_n ) capacitor c=0.00938034f \
 //x=7.2 //y=5.02 //x2=7.4 //y2=2.085
cc_162 ( N_VDD_c_166_p N_noxref_4_M13_noxref_g ) capacitor c=0.00748034f \
 //x=8.13 //y=7.4 //x2=7.555 //y2=6.02
cc_163 ( N_VDD_c_125_n N_noxref_4_M13_noxref_g ) capacitor c=0.0102569f \
 //x=6.66 //y=7.4 //x2=7.555 //y2=6.02
cc_164 ( N_VDD_M13_noxref_s N_noxref_4_M13_noxref_g ) capacitor c=0.0528676f \
 //x=7.2 //y=5.02 //x2=7.555 //y2=6.02
cc_165 ( N_VDD_c_166_p N_noxref_4_M14_noxref_g ) capacitor c=0.00697478f \
 //x=8.13 //y=7.4 //x2=7.995 //y2=6.02
cc_166 ( N_VDD_M14_noxref_d N_noxref_4_M14_noxref_g ) capacitor c=0.0528676f \
 //x=8.07 //y=5.02 //x2=7.995 //y2=6.02
cc_167 ( N_VDD_c_126_n N_noxref_4_c_424_n ) capacitor c=0.0287802f //x=8.14 \
 //y=7.4 //x2=7.92 //y2=4.79
cc_168 ( N_VDD_c_125_n N_noxref_4_c_425_n ) capacitor c=0.011132f //x=6.66 \
 //y=7.4 //x2=7.63 //y2=4.79
cc_169 ( N_VDD_M13_noxref_s N_noxref_4_c_425_n ) capacitor c=0.00665831f \
 //x=7.2 //y=5.02 //x2=7.63 //y2=4.79
cc_170 ( N_VDD_c_125_n N_noxref_4_M11_noxref_d ) capacitor c=0.00966019f \
 //x=6.66 //y=7.4 //x2=5.295 //y2=5.025
cc_171 ( N_VDD_M9_noxref_d N_noxref_4_M11_noxref_d ) capacitor c=0.00561178f \
 //x=4.415 //y=5.025 //x2=5.295 //y2=5.025
cc_172 ( N_VDD_M13_noxref_s N_noxref_4_M11_noxref_d ) capacitor c=4.94992e-19 \
 //x=7.2 //y=5.02 //x2=5.295 //y2=5.025
cc_173 ( N_VDD_c_128_p N_A_c_502_n ) capacitor c=3.97183e-19 //x=1.585 //y=7.4 \
 //x2=1.11 //y2=2.08
cc_174 ( N_VDD_c_123_n N_A_c_502_n ) capacitor c=0.016845f //x=0.74 //y=7.4 \
 //x2=1.11 //y2=2.08
cc_175 ( N_VDD_c_128_p N_A_M5_noxref_g ) capacitor c=0.00726866f //x=1.585 \
 //y=7.4 //x2=1.01 //y2=6.02
cc_176 ( N_VDD_M5_noxref_s N_A_M5_noxref_g ) capacitor c=0.054195f //x=0.655 \
 //y=5.02 //x2=1.01 //y2=6.02
cc_177 ( N_VDD_c_128_p N_A_M6_noxref_g ) capacitor c=0.00672952f //x=1.585 \
 //y=7.4 //x2=1.45 //y2=6.02
cc_178 ( N_VDD_M6_noxref_d N_A_M6_noxref_g ) capacitor c=0.015318f //x=1.525 \
 //y=5.02 //x2=1.45 //y2=6.02
cc_179 ( N_VDD_c_123_n N_A_c_519_n ) capacitor c=0.0292267f //x=0.74 //y=7.4 \
 //x2=1.11 //y2=4.7
cc_180 ( N_VDD_c_123_n N_B_c_557_n ) capacitor c=6.61004e-19 //x=0.74 //y=7.4 \
 //x2=1.85 //y2=2.08
cc_181 ( N_VDD_c_124_n N_B_c_557_n ) capacitor c=6.09526e-19 //x=3.33 //y=7.4 \
 //x2=1.85 //y2=2.08
cc_182 ( N_VDD_c_129_p N_B_M7_noxref_g ) capacitor c=0.00673971f //x=2.465 \
 //y=7.4 //x2=1.89 //y2=6.02
cc_183 ( N_VDD_M6_noxref_d N_B_M7_noxref_g ) capacitor c=0.015318f //x=1.525 \
 //y=5.02 //x2=1.89 //y2=6.02
cc_184 ( N_VDD_c_129_p N_B_M8_noxref_g ) capacitor c=0.00672952f //x=2.465 \
 //y=7.4 //x2=2.33 //y2=6.02
cc_185 ( N_VDD_c_124_n N_B_M8_noxref_g ) capacitor c=0.00954586f //x=3.33 \
 //y=7.4 //x2=2.33 //y2=6.02
cc_186 ( N_VDD_M8_noxref_d N_B_M8_noxref_g ) capacitor c=0.0430452f //x=2.405 \
 //y=5.02 //x2=2.33 //y2=6.02
cc_187 ( N_VDD_c_124_n N_C_c_672_n ) capacitor c=7.02327e-19 //x=3.33 //y=7.4 \
 //x2=5.18 //y2=2.08
cc_188 ( N_VDD_c_125_n N_C_c_672_n ) capacitor c=6.16704e-19 //x=6.66 //y=7.4 \
 //x2=5.18 //y2=2.08
cc_189 ( N_VDD_c_143_p N_C_M11_noxref_g ) capacitor c=0.00513565f //x=6.49 \
 //y=7.4 //x2=5.22 //y2=6.025
cc_190 ( N_VDD_c_143_p N_C_M12_noxref_g ) capacitor c=0.00512552f //x=6.49 \
 //y=7.4 //x2=5.66 //y2=6.025
cc_191 ( N_VDD_c_125_n N_C_M12_noxref_g ) capacitor c=0.0120232f //x=6.66 \
 //y=7.4 //x2=5.66 //y2=6.025
cc_192 ( N_VDD_c_140_p N_noxref_9_c_743_n ) capacitor c=5.81484e-19 //x=4.475 \
 //y=7.4 //x2=4.915 //y2=5.21
cc_193 ( N_VDD_c_143_p N_noxref_9_c_743_n ) capacitor c=5.81484e-19 //x=6.49 \
 //y=7.4 //x2=4.915 //y2=5.21
cc_194 ( N_VDD_c_125_n N_noxref_9_c_743_n ) capacitor c=0.00289291f //x=6.66 \
 //y=7.4 //x2=4.915 //y2=5.21
cc_195 ( N_VDD_M9_noxref_d N_noxref_9_c_743_n ) capacitor c=0.0132432f \
 //x=4.415 //y=5.025 //x2=4.915 //y2=5.21
cc_196 ( N_VDD_c_124_n N_noxref_9_c_747_n ) capacitor c=0.0669114f //x=3.33 \
 //y=7.4 //x2=4.205 //y2=5.21
cc_197 ( N_VDD_c_126_n N_noxref_9_c_748_n ) capacitor c=0.00359933f //x=8.14 \
 //y=7.4 //x2=5.795 //y2=6.91
cc_198 ( N_VDD_c_146_p N_noxref_9_c_749_n ) capacitor c=0.0370274f //x=8.14 \
 //y=7.4 //x2=5.085 //y2=6.91
cc_199 ( N_VDD_c_143_p N_noxref_9_c_749_n ) capacitor c=0.0586694f //x=6.49 \
 //y=7.4 //x2=5.085 //y2=6.91
cc_200 ( N_VDD_c_126_n N_noxref_9_c_749_n ) capacitor c=0.00118659f //x=8.14 \
 //y=7.4 //x2=5.085 //y2=6.91
cc_201 ( N_VDD_c_146_p N_noxref_9_M9_noxref_s ) capacitor c=0.00726388f \
 //x=8.14 //y=7.4 //x2=3.985 //y2=5.025
cc_202 ( N_VDD_c_140_p N_noxref_9_M9_noxref_s ) capacitor c=0.0141117f \
 //x=4.475 //y=7.4 //x2=3.985 //y2=5.025
cc_203 ( N_VDD_c_126_n N_noxref_9_M9_noxref_s ) capacitor c=0.00138926f \
 //x=8.14 //y=7.4 //x2=3.985 //y2=5.025
cc_204 ( N_VDD_M8_noxref_d N_noxref_9_M9_noxref_s ) capacitor c=0.00196306f \
 //x=2.405 //y=5.02 //x2=3.985 //y2=5.025
cc_205 ( N_VDD_M9_noxref_d N_noxref_9_M9_noxref_s ) capacitor c=0.0667021f \
 //x=4.415 //y=5.025 //x2=3.985 //y2=5.025
cc_206 ( N_VDD_c_124_n N_noxref_9_M10_noxref_d ) capacitor c=8.88629e-19 \
 //x=3.33 //y=7.4 //x2=4.855 //y2=5.025
cc_207 ( N_VDD_M9_noxref_d N_noxref_9_M10_noxref_d ) capacitor c=0.0659925f \
 //x=4.415 //y=5.025 //x2=4.855 //y2=5.025
cc_208 ( N_VDD_c_125_n N_noxref_9_M12_noxref_d ) capacitor c=0.0520312f \
 //x=6.66 //y=7.4 //x2=5.735 //y2=5.025
cc_209 ( N_VDD_M9_noxref_d N_noxref_9_M12_noxref_d ) capacitor c=0.00107819f \
 //x=4.415 //y=5.025 //x2=5.735 //y2=5.025
cc_210 ( N_VDD_M13_noxref_s N_noxref_9_M12_noxref_d ) capacitor c=0.00226909f \
 //x=7.2 //y=5.02 //x2=5.735 //y2=5.025
cc_211 ( N_VDD_c_125_n Y ) capacitor c=4.80934e-19 //x=6.66 //y=7.4 //x2=8.14 \
 //y2=2.22
cc_212 ( N_VDD_c_126_n Y ) capacitor c=0.0232778f //x=8.14 //y=7.4 //x2=8.14 \
 //y2=2.22
cc_213 ( N_VDD_c_166_p N_Y_c_797_n ) capacitor c=8.92854e-19 //x=8.13 //y=7.4 \
 //x2=8.055 //y2=4.58
cc_214 ( N_VDD_M14_noxref_d N_Y_c_797_n ) capacitor c=0.00644908f //x=8.07 \
 //y=5.02 //x2=8.055 //y2=4.58
cc_215 ( N_VDD_c_125_n N_Y_c_799_n ) capacitor c=0.017572f //x=6.66 //y=7.4 \
 //x2=7.86 //y2=4.58
cc_216 ( N_VDD_c_146_p N_Y_M13_noxref_d ) capacitor c=0.00722811f //x=8.14 \
 //y=7.4 //x2=7.63 //y2=5.02
cc_217 ( N_VDD_c_166_p N_Y_M13_noxref_d ) capacitor c=0.0139004f //x=8.13 \
 //y=7.4 //x2=7.63 //y2=5.02
cc_218 ( N_VDD_c_126_n N_Y_M13_noxref_d ) capacitor c=0.0219131f //x=8.14 \
 //y=7.4 //x2=7.63 //y2=5.02
cc_219 ( N_VDD_M13_noxref_s N_Y_M13_noxref_d ) capacitor c=0.0843065f //x=7.2 \
 //y=5.02 //x2=7.63 //y2=5.02
cc_220 ( N_VDD_M14_noxref_d N_Y_M13_noxref_d ) capacitor c=0.0832641f //x=8.07 \
 //y=5.02 //x2=7.63 //y2=5.02
cc_221 ( N_noxref_3_c_225_n N_noxref_4_c_373_n ) capacitor c=0.0114841f \
 //x=4.325 //y=2.59 //x2=6.035 //y2=2.59
cc_222 ( N_noxref_3_c_243_n N_noxref_4_c_375_n ) capacitor c=0.00431513f \
 //x=4.775 //y=1.25 //x2=5.395 //y2=1.655
cc_223 ( N_noxref_3_c_225_n N_noxref_4_c_432_n ) capacitor c=0.0018301f \
 //x=4.325 //y=2.59 //x2=4.595 //y2=1.655
cc_224 ( N_noxref_3_c_233_n N_noxref_4_c_432_n ) capacitor c=0.0107041f \
 //x=4.44 //y=2.08 //x2=4.595 //y2=1.655
cc_225 ( N_noxref_3_c_238_n N_noxref_4_c_432_n ) capacitor c=0.00524371f \
 //x=4.245 //y=1.915 //x2=4.595 //y2=1.655
cc_226 ( N_noxref_3_c_231_n N_noxref_4_c_384_n ) capacitor c=3.55699e-19 \
 //x=2.59 //y=2.59 //x2=5.92 //y2=2.59
cc_227 ( N_noxref_3_c_233_n N_noxref_4_c_384_n ) capacitor c=0.00354085f \
 //x=4.44 //y=2.08 //x2=5.92 //y2=2.59
cc_228 ( N_noxref_3_c_236_n N_noxref_4_M2_noxref_d ) capacitor c=0.0013184f \
 //x=4.245 //y=0.905 //x2=4.32 //y2=0.905
cc_229 ( N_noxref_3_c_286_p N_noxref_4_M2_noxref_d ) capacitor c=0.0034598f \
 //x=4.245 //y=1.25 //x2=4.32 //y2=0.905
cc_230 ( N_noxref_3_c_287_p N_noxref_4_M2_noxref_d ) capacitor c=0.00300148f \
 //x=4.245 //y=1.56 //x2=4.32 //y2=0.905
cc_231 ( N_noxref_3_c_238_n N_noxref_4_M2_noxref_d ) capacitor c=0.00273686f \
 //x=4.245 //y=1.915 //x2=4.32 //y2=0.905
cc_232 ( N_noxref_3_c_240_n N_noxref_4_M2_noxref_d ) capacitor c=0.00241102f \
 //x=4.62 //y=0.75 //x2=4.32 //y2=0.905
cc_233 ( N_noxref_3_c_290_p N_noxref_4_M2_noxref_d ) capacitor c=0.0123304f \
 //x=4.62 //y=1.405 //x2=4.32 //y2=0.905
cc_234 ( N_noxref_3_c_241_n N_noxref_4_M2_noxref_d ) capacitor c=0.00219619f \
 //x=4.775 //y=0.905 //x2=4.32 //y2=0.905
cc_235 ( N_noxref_3_c_243_n N_noxref_4_M2_noxref_d ) capacitor c=0.00603828f \
 //x=4.775 //y=1.25 //x2=4.32 //y2=0.905
cc_236 ( N_noxref_3_c_251_n N_A_c_502_n ) capacitor c=0.0055959f //x=1.315 \
 //y=5.2 //x2=1.11 //y2=2.08
cc_237 ( N_noxref_3_c_231_n N_A_c_502_n ) capacitor c=0.00407922f //x=2.59 \
 //y=2.59 //x2=1.11 //y2=2.08
cc_238 ( N_noxref_3_c_251_n N_A_M5_noxref_g ) capacitor c=0.0177326f //x=1.315 \
 //y=5.2 //x2=1.01 //y2=6.02
cc_239 ( N_noxref_3_c_248_n N_A_M6_noxref_g ) capacitor c=0.0204115f //x=2.025 \
 //y=5.2 //x2=1.45 //y2=6.02
cc_240 ( N_noxref_3_M5_noxref_d N_A_M6_noxref_g ) capacitor c=0.0173476f \
 //x=1.085 //y=5.02 //x2=1.45 //y2=6.02
cc_241 ( N_noxref_3_c_251_n N_A_c_519_n ) capacitor c=0.00605692f //x=1.315 \
 //y=5.2 //x2=1.11 //y2=4.7
cc_242 ( N_noxref_3_c_248_n N_B_c_566_n ) capacitor c=0.0127867f //x=2.025 \
 //y=5.2 //x2=1.85 //y2=4.535
cc_243 ( N_noxref_3_c_231_n N_B_c_566_n ) capacitor c=0.0101284f //x=2.59 \
 //y=2.59 //x2=1.85 //y2=4.535
cc_244 ( N_noxref_3_c_228_n N_B_c_557_n ) capacitor c=0.00732168f //x=2.705 \
 //y=2.59 //x2=1.85 //y2=2.08
cc_245 ( N_noxref_3_c_231_n N_B_c_557_n ) capacitor c=0.0813981f //x=2.59 \
 //y=2.59 //x2=1.85 //y2=2.08
cc_246 ( N_noxref_3_c_233_n N_B_c_557_n ) capacitor c=9.8819e-19 //x=4.44 \
 //y=2.08 //x2=1.85 //y2=2.08
cc_247 ( N_noxref_3_c_248_n N_B_M7_noxref_g ) capacitor c=0.0166699f //x=2.025 \
 //y=5.2 //x2=1.89 //y2=6.02