// File: aoa4x1_pcell.spi.pex
// Created: Tue Oct 15 15:54:59 2024
// Program "Calibre xRC"
// Version "v2023.2_27.15"
// Nominal Temperature: 30C
// Circuit Temperature: 30C
// 
simulator lang=spectre
subckt PM_AOA4X1_PCELL\%noxref_1 ( 21 25 28 33 44 49 53 61 65 68 77 85 96 101 \
 105 118 138 140 147 154 155 156 157 )
c169 ( 157 0 ) capacitor c=0.0597349f //x=10.485 //y=0.37
c170 ( 156 0 ) capacitor c=0.0207703f //x=7.65 //y=0.865
c171 ( 155 0 ) capacitor c=0.0698863f //x=3.89 //y=0.365
c172 ( 154 0 ) capacitor c=0.0208404f //x=0.99 //y=0.865
c173 ( 147 0 ) capacitor c=0.233789f //x=11.59 //y=0
c174 ( 140 0 ) capacitor c=0.101261f //x=9.99 //y=0
c175 ( 139 0 ) capacitor c=0.00440095f //x=7.84 //y=0
c176 ( 138 0 ) capacitor c=0.10428f //x=6.66 //y=0
c177 ( 118 0 ) capacitor c=0.107062f //x=3.33 //y=0
c178 ( 117 0 ) capacitor c=0.00440095f //x=1.18 //y=0
c179 ( 108 0 ) capacitor c=0.00583665f //x=11.59 //y=0.45
c180 ( 105 0 ) capacitor c=0.00542558f //x=11.505 //y=0.535
c181 ( 104 0 ) capacitor c=0.00479856f //x=11.105 //y=0.45
c182 ( 101 0 ) capacitor c=0.00690112f //x=11.02 //y=0.535
c183 ( 96 0 ) capacitor c=0.00588377f //x=10.62 //y=0.45
c184 ( 93 0 ) capacitor c=0.0190475f //x=10.535 //y=0
c185 ( 85 0 ) capacitor c=0.0751168f //x=9.82 //y=0
c186 ( 77 0 ) capacitor c=0.0426751f //x=7.755 //y=0
c187 ( 74 0 ) capacitor c=0.0659312f //x=6.05 //y=0
c188 ( 73 0 ) capacitor c=0.0227441f //x=6.49 //y=0
c189 ( 68 0 ) capacitor c=0.00609805f //x=5.965 //y=0.445
c190 ( 65 0 ) capacitor c=0.00508073f //x=5.88 //y=0.53
c191 ( 64 0 ) capacitor c=0.00468234f //x=5.48 //y=0.445
c192 ( 61 0 ) capacitor c=0.00556167f //x=5.395 //y=0.53
c193 ( 56 0 ) capacitor c=0.00468234f //x=4.995 //y=0.445
c194 ( 53 0 ) capacitor c=0.00556167f //x=4.91 //y=0.53
c195 ( 52 0 ) capacitor c=0.00468234f //x=4.51 //y=0.445
c196 ( 49 0 ) capacitor c=0.00692577f //x=4.425 //y=0.53
c197 ( 44 0 ) capacitor c=0.00609805f //x=4.025 //y=0.445
c198 ( 41 0 ) capacitor c=0.0227441f //x=3.94 //y=0
c199 ( 33 0 ) capacitor c=0.0751168f //x=3.16 //y=0
c200 ( 28 0 ) capacitor c=0.179504f //x=0.74 //y=0
c201 ( 25 0 ) capacitor c=0.0426751f //x=1.095 //y=0
c202 ( 21 0 ) capacitor c=0.458606f //x=11.47 //y=0
r203 (  146 147 ) resistor r=4.30252 //w=0.357 //l=0.12 //layer=li \
 //thickness=0.1 //x=11.47 //y=0 //x2=11.59 //y2=0
r204 (  144 146 ) resistor r=13.0868 //w=0.357 //l=0.365 //layer=li \
 //thickness=0.1 //x=11.105 //y=0 //x2=11.47 //y2=0
r205 (  143 144 ) resistor r=13.4454 //w=0.357 //l=0.375 //layer=li \
 //thickness=0.1 //x=10.73 //y=0 //x2=11.105 //y2=0
r206 (  141 143 ) resistor r=3.94398 //w=0.357 //l=0.11 //layer=li \
 //thickness=0.1 //x=10.62 //y=0 //x2=10.73 //y2=0
r207 (  126 127 ) resistor r=14.8796 //w=0.357 //l=0.415 //layer=li \
 //thickness=0.1 //x=5.55 //y=0 //x2=5.965 //y2=0
r208 (  124 126 ) resistor r=2.5098 //w=0.357 //l=0.07 //layer=li \
 //thickness=0.1 //x=5.48 //y=0 //x2=5.55 //y2=0
r209 (  123 124 ) resistor r=17.3894 //w=0.357 //l=0.485 //layer=li \
 //thickness=0.1 //x=4.995 //y=0 //x2=5.48 //y2=0
r210 (  122 123 ) resistor r=17.3894 //w=0.357 //l=0.485 //layer=li \
 //thickness=0.1 //x=4.51 //y=0 //x2=4.995 //y2=0
r211 (  121 122 ) resistor r=2.5098 //w=0.357 //l=0.07 //layer=li \
 //thickness=0.1 //x=4.44 //y=0 //x2=4.51 //y2=0
r212 (  119 121 ) resistor r=14.8796 //w=0.357 //l=0.415 //layer=li \
 //thickness=0.1 //x=4.025 //y=0 //x2=4.44 //y2=0
r213 (  109 157 ) resistor r=5.4201 //w=0.17 //l=0.085 //layer=li \
 //thickness=0.1 //x=11.59 //y=0.62 //x2=11.59 //y2=0.535
r214 (  109 157 ) resistor r=41.4118 //w=0.187 //l=0.605 //layer=li \
 //thickness=0.1 //x=11.59 //y=0.62 //x2=11.59 //y2=1.225
r215 (  108 157 ) resistor r=5.4201 //w=0.17 //l=0.085 //layer=li \
 //thickness=0.1 //x=11.59 //y=0.45 //x2=11.59 //y2=0.535
r216 (  107 147 ) resistor r=5.03728 //w=0.34 //l=0.17 //layer=li \
 //thickness=0.1 //x=11.59 //y=0.17 //x2=11.59 //y2=0
r217 (  107 108 ) resistor r=19.1658 //w=0.187 //l=0.28 //layer=li \
 //thickness=0.1 //x=11.59 //y=0.17 //x2=11.59 //y2=0.45
r218 (  106 157 ) resistor r=5.4201 //w=0.17 //l=0.085 //layer=li \
 //thickness=0.1 //x=11.19 //y=0.535 //x2=11.105 //y2=0.535
r219 (  105 157 ) resistor r=1.40859 //w=0.34 //l=0.085 //layer=li \
 //thickness=0.1 //x=11.505 //y=0.535 //x2=11.59 //y2=0.535
r220 (  105 106 ) resistor r=21.5615 //w=0.187 //l=0.315 //layer=li \
 //thickness=0.1 //x=11.505 //y=0.535 //x2=11.19 //y2=0.535
r221 (  104 157 ) resistor r=1.40859 //w=0.34 //l=0.085 //layer=li \
 //thickness=0.1 //x=11.105 //y=0.45 //x2=11.105 //y2=0.535
r222 (  103 144 ) resistor r=5.03728 //w=0.34 //l=0.17 //layer=li \
 //thickness=0.1 //x=11.105 //y=0.17 //x2=11.105 //y2=0
r223 (  103 104 ) resistor r=19.1658 //w=0.187 //l=0.28 //layer=li \
 //thickness=0.1 //x=11.105 //y=0.17 //x2=11.105 //y2=0.45
r224 (  102 157 ) resistor r=1.40859 //w=0.34 //l=0.085 //layer=li \
 //thickness=0.1 //x=10.705 //y=0.535 //x2=10.62 //y2=0.535
r225 (  101 157 ) resistor r=5.4201 //w=0.17 //l=0.085 //layer=li \
 //thickness=0.1 //x=11.02 //y=0.535 //x2=11.105 //y2=0.535
r226 (  101 102 ) resistor r=21.5615 //w=0.187 //l=0.315 //layer=li \
 //thickness=0.1 //x=11.02 //y=0.535 //x2=10.705 //y2=0.535
r227 (  97 157 ) resistor r=5.4201 //w=0.17 //l=0.085 //layer=li \
 //thickness=0.1 //x=10.62 //y=0.62 //x2=10.62 //y2=0.535
r228 (  97 157 ) resistor r=41.4118 //w=0.187 //l=0.605 //layer=li \
 //thickness=0.1 //x=10.62 //y=0.62 //x2=10.62 //y2=1.225
r229 (  96 157 ) resistor r=5.4201 //w=0.17 //l=0.085 //layer=li \
 //thickness=0.1 //x=10.62 //y=0.45 //x2=10.62 //y2=0.535
r230 (  95 141 ) resistor r=5.03728 //w=0.34 //l=0.17 //layer=li \
 //thickness=0.1 //x=10.62 //y=0.17 //x2=10.62 //y2=0
r231 (  95 96 ) resistor r=19.1658 //w=0.187 //l=0.28 //layer=li \
 //thickness=0.1 //x=10.62 //y=0.17 //x2=10.62 //y2=0.45
r232 (  94 140 ) resistor r=5.4201 //w=0.34 //l=0.17 //layer=li \
 //thickness=0.1 //x=10.16 //y=0 //x2=9.99 //y2=0
r233 (  93 141 ) resistor r=3.04762 //w=0.357 //l=0.085 //layer=li \
 //thickness=0.1 //x=10.535 //y=0 //x2=10.62 //y2=0
r234 (  93 94 ) resistor r=13.4454 //w=0.357 //l=0.375 //layer=li \
 //thickness=0.1 //x=10.535 //y=0 //x2=10.16 //y2=0
r235 (  88 90 ) resistor r=39.7983 //w=0.357 //l=1.11 //layer=li \
 //thickness=0.1 //x=8.14 //y=0 //x2=9.25 //y2=0
r236 (  86 139 ) resistor r=2.94794 //w=0.34 //l=0.085 //layer=li \
 //thickness=0.1 //x=7.925 //y=0 //x2=7.84 //y2=0
r237 (  86 88 ) resistor r=7.70868 //w=0.357 //l=0.215 //layer=li \
 //thickness=0.1 //x=7.925 //y=0 //x2=8.14 //y2=0
r238 (  85 140 ) resistor r=5.4201 //w=0.34 //l=0.17 //layer=li \
 //thickness=0.1 //x=9.82 //y=0 //x2=9.99 //y2=0
r239 (  85 90 ) resistor r=20.437 //w=0.357 //l=0.57 //layer=li \
 //thickness=0.1 //x=9.82 //y=0 //x2=9.25 //y2=0
r240 (  81 139 ) resistor r=4.11603 //w=0.68 //l=0.17 //layer=li \
 //thickness=0.1 //x=7.84 //y=0.17 //x2=7.84 //y2=0
r241 (  81 156 ) resistor r=53.7326 //w=0.187 //l=0.785 //layer=li \
 //thickness=0.1 //x=7.84 //y=0.17 //x2=7.84 //y2=0.955
r242 (  78 138 ) resistor r=5.4201 //w=0.34 //l=0.17 //layer=li \
 //thickness=0.1 //x=6.83 //y=0 //x2=6.66 //y2=0
r243 (  78 80 ) resistor r=7.17087 //w=0.357 //l=0.2 //layer=li \
 //thickness=0.1 //x=6.83 //y=0 //x2=7.03 //y2=0
r244 (  77 139 ) resistor r=2.94794 //w=0.34 //l=0.085 //layer=li \
 //thickness=0.1 //x=7.755 //y=0 //x2=7.84 //y2=0
r245 (  77 80 ) resistor r=25.9944 //w=0.357 //l=0.725 //layer=li \
 //thickness=0.1 //x=7.755 //y=0 //x2=7.03 //y2=0
r246 (  74 127 ) resistor r=3.04762 //w=0.357 //l=0.085 //layer=li \
 //thickness=0.1 //x=6.05 //y=0 //x2=5.965 //y2=0
r247 (  73 138 ) resistor r=5.4201 //w=0.34 //l=0.17 //layer=li \
 //thickness=0.1 //x=6.49 //y=0 //x2=6.66 //y2=0
r248 (  73 74 ) resistor r=15.7759 //w=0.357 //l=0.44 //layer=li \
 //thickness=0.1 //x=6.49 //y=0 //x2=6.05 //y2=0
r249 (  69 155 ) resistor r=5.4201 //w=0.17 //l=0.085 //layer=li \
 //thickness=0.1 //x=5.965 //y=0.615 //x2=5.965 //y2=0.53
r250 (  69 155 ) resistor r=18.139 //w=0.187 //l=0.265 //layer=li \
 //thickness=0.1 //x=5.965 //y=0.615 //x2=5.965 //y2=0.88
r251 (  68 155 ) resistor r=5.4201 //w=0.17 //l=0.085 //layer=li \
 //thickness=0.1 //x=5.965 //y=0.445 //x2=5.965 //y2=0.53
r252 (  67 127 ) resistor r=5.03728 //w=0.34 //l=0.17 //layer=li \
 //thickness=0.1 //x=5.965 //y=0.17 //x2=5.965 //y2=0
r253 (  67 68 ) resistor r=18.8235 //w=0.187 //l=0.275 //layer=li \
 //thickness=0.1 //x=5.965 //y=0.17 //x2=5.965 //y2=0.445
r254 (  66 155 ) resistor r=5.4201 //w=0.17 //l=0.085 //layer=li \
 //thickness=0.1 //x=5.565 //y=0.53 //x2=5.48 //y2=0.53
r255 (  65 155 ) resistor r=1.40859 //w=0.34 //l=0.085 //layer=li \
 //thickness=0.1 //x=5.88 //y=0.53 //x2=5.965 //y2=0.53
r256 (  65 66 ) resistor r=21.5615 //w=0.187 //l=0.315 //layer=li \
 //thickness=0.1 //x=5.88 //y=0.53 //x2=5.565 //y2=0.53
r257 (  64 155 ) resistor r=1.40859 //w=0.34 //l=0.085 //layer=li \
 //thickness=0.1 //x=5.48 //y=0.445 //x2=5.48 //y2=0.53
r258 (  63 124 ) resistor r=5.03728 //w=0.34 //l=0.17 //layer=li \
 //thickness=0.1 //x=5.48 //y=0.17 //x2=5.48 //y2=0
r259 (  63 64 ) resistor r=18.8235 //w=0.187 //l=0.275 //layer=li \
 //thickness=0.1 //x=5.48 //y=0.17 //x2=5.48 //y2=0.445
r260 (  62 155 ) resistor r=6.4 //w=0.17 //l=0.085 //layer=li //thickness=0.1 \
 //x=5.08 //y=0.53 //x2=4.995 //y2=0.53
r261 (  61 155 ) resistor r=5.4201 //w=0.17 //l=0.085 //layer=li \
 //thickness=0.1 //x=5.395 //y=0.53 //x2=5.48 //y2=0.53
r262 (  61 62 ) resistor r=21.5615 //w=0.187 //l=0.315 //layer=li \
 //thickness=0.1 //x=5.395 //y=0.53 //x2=5.08 //y2=0.53
r263 (  57 155 ) resistor r=6.4 //w=0.17 //l=0.085 //layer=li //thickness=0.1 \
 //x=4.995 //y=0.615 //x2=4.995 //y2=0.53
r264 (  57 155 ) resistor r=18.139 //w=0.187 //l=0.265 //layer=li \
 //thickness=0.1 //x=4.995 //y=0.615 //x2=4.995 //y2=0.88
r265 (  56 155 ) resistor r=6.4 //w=0.17 //l=0.085 //layer=li //thickness=0.1 \
 //x=4.995 //y=0.445 //x2=4.995 //y2=0.53
r266 (  55 123 ) resistor r=5.03728 //w=0.34 //l=0.17 //layer=li \
 //thickness=0.1 //x=4.995 //y=0.17 //x2=4.995 //y2=0
r267 (  55 56 ) resistor r=18.8235 //w=0.187 //l=0.275 //layer=li \
 //thickness=0.1 //x=4.995 //y=0.17 //x2=4.995 //y2=0.445
r268 (  54 155 ) resistor r=5.4201 //w=0.17 //l=0.085 //layer=li \
 //thickness=0.1 //x=4.595 //y=0.53 //x2=4.51 //y2=0.53
r269 (  53 155 ) resistor r=6.4 //w=0.17 //l=0.085 //layer=li //thickness=0.1 \
 //x=4.91 //y=0.53 //x2=4.995 //y2=0.53
r270 (  53 54 ) resistor r=21.5615 //w=0.187 //l=0.315 //layer=li \
 //thickness=0.1 //x=4.91 //y=0.53 //x2=4.595 //y2=0.53
r271 (  52 155 ) resistor r=1.40859 //w=0.34 //l=0.085 //layer=li \
 //thickness=0.1 //x=4.51 //y=0.445 //x2=4.51 //y2=0.53
r272 (  51 122 ) resistor r=5.03728 //w=0.34 //l=0.17 //layer=li \
 //thickness=0.1 //x=4.51 //y=0.17 //x2=4.51 //y2=0
r273 (  51 52 ) resistor r=18.8235 //w=0.187 //l=0.275 //layer=li \
 //thickness=0.1 //x=4.51 //y=0.17 //x2=4.51 //y2=0.445
r274 (  50 155 ) resistor r=1.40859 //w=0.34 //l=0.085 //layer=li \
 //thickness=0.1 //x=4.11 //y=0.53 //x2=4.025 //y2=0.53
r275 (  49 155 ) resistor r=5.4201 //w=0.17 //l=0.085 //layer=li \
 //thickness=0.1 //x=4.425 //y=0.53 //x2=4.51 //y2=0.53
r276 (  49 50 ) resistor r=21.5615 //w=0.187 //l=0.315 //layer=li \
 //thickness=0.1 //x=4.425 //y=0.53 //x2=4.11 //y2=0.53
r277 (  45 155 ) resistor r=5.4201 //w=0.17 //l=0.085 //layer=li \
 //thickness=0.1 //x=4.025 //y=0.615 //x2=4.025 //y2=0.53
r278 (  45 155 ) resistor r=41.4118 //w=0.187 //l=0.605 //layer=li \
 //thickness=0.1 //x=4.025 //y=0.615 //x2=4.025 //y2=1.22
r279 (  44 155 ) resistor r=5.4201 //w=0.17 //l=0.085 //layer=li \
 //thickness=0.1 //x=4.025 //y=0.445 //x2=4.025 //y2=0.53
r280 (  43 119 ) resistor r=5.03728 //w=0.34 //l=0.17 //layer=li \
 //thickness=0.1 //x=4.025 //y=0.17 //x2=4.025 //y2=0
r281 (  43 44 ) resistor r=18.8235 //w=0.187 //l=0.275 //layer=li \
 //thickness=0.1 //x=4.025 //y=0.17 //x2=4.025 //y2=0.445
r282 (  42 118 ) resistor r=5.4201 //w=0.34 //l=0.17 //layer=li \
 //thickness=0.1 //x=3.5 //y=0 //x2=3.33 //y2=0
r283 (  41 119 ) resistor r=3.04762 //w=0.357 //l=0.085 //layer=li \
 //thickness=0.1 //x=3.94 //y=0 //x2=4.025 //y2=0
r284 (  41 42 ) resistor r=15.7759 //w=0.357 //l=0.44 //layer=li \
 //thickness=0.1 //x=3.94 //y=0 //x2=3.5 //y2=0
r285 (  36 38 ) resistor r=39.7983 //w=0.357 //l=1.11 //layer=li \
 //thickness=0.1 //x=1.85 //y=0 //x2=2.96 //y2=0
r286 (  34 117 ) resistor r=2.94794 //w=0.34 //l=0.085 //layer=li \
 //thickness=0.1 //x=1.265 //y=0 //x2=1.18 //y2=0
r287 (  34 36 ) resistor r=20.9748 //w=0.357 //l=0.585 //layer=li \
 //thickness=0.1 //x=1.265 //y=0 //x2=1.85 //y2=0
r288 (  33 118 ) resistor r=5.4201 //w=0.34 //l=0.17 //layer=li \
 //thickness=0.1 //x=3.16 //y=0 //x2=3.33 //y2=0
r289 (  33 38 ) resistor r=7.17087 //w=0.357 //l=0.2 //layer=li \
 //thickness=0.1 //x=3.16 //y=0 //x2=2.96 //y2=0
r290 (  29 117 ) resistor r=4.11603 //w=0.68 //l=0.17 //layer=li \
 //thickness=0.1 //x=1.18 //y=0.17 //x2=1.18 //y2=0
r291 (  29 154 ) resistor r=53.7326 //w=0.187 //l=0.785 //layer=li \
 //thickness=0.1 //x=1.18 //y=0.17 //x2=1.18 //y2=0.955
r292 (  25 117 ) resistor r=2.94794 //w=0.34 //l=0.085 //layer=li \
 //thickness=0.1 //x=1.095 //y=0 //x2=1.18 //y2=0
r293 (  25 28 ) resistor r=12.7283 //w=0.357 //l=0.355 //layer=li \
 //thickness=0.1 //x=1.095 //y=0 //x2=0.74 //y2=0
r294 (  21 146 ) resistor r=4.65 //w=0.17 //l=0.34 //layer=mcon //count=2 \
 //x=11.47 //y=0 //x2=11.47 //y2=0
r295 (  19 143 ) resistor r=3.1 //w=0.17 //l=0.51 //layer=mcon //count=3 \
 //x=10.73 //y=0 //x2=10.73 //y2=0
r296 (  19 21 ) resistor r=0.307309 //w=0.301 //l=0.74 //layer=m1 \
 //thickness=0.36 //x=10.73 //y=0 //x2=11.47 //y2=0
r297 (  17 90 ) resistor r=3.1 //w=0.17 //l=0.51 //layer=mcon //count=3 \
 //x=9.25 //y=0 //x2=9.25 //y2=0
r298 (  17 19 ) resistor r=0.614618 //w=0.301 //l=1.48 //layer=m1 \
 //thickness=0.36 //x=9.25 //y=0 //x2=10.73 //y2=0
r299 (  15 88 ) resistor r=3.1 //w=0.17 //l=0.51 //layer=mcon //count=3 \
 //x=8.14 //y=0 //x2=8.14 //y2=0
r300 (  15 17 ) resistor r=0.460963 //w=0.301 //l=1.11 //layer=m1 \
 //thickness=0.36 //x=8.14 //y=0 //x2=9.25 //y2=0
r301 (  13 80 ) resistor r=3.1 //w=0.17 //l=0.51 //layer=mcon //count=3 \
 //x=7.03 //y=0 //x2=7.03 //y2=0
r302 (  13 15 ) resistor r=0.460963 //w=0.301 //l=1.11 //layer=m1 \
 //thickness=0.36 //x=7.03 //y=0 //x2=8.14 //y2=0
r303 (  11 126 ) resistor r=3.1 //w=0.17 //l=0.51 //layer=mcon //count=3 \
 //x=5.55 //y=0 //x2=5.55 //y2=0
r304 (  11 13 ) resistor r=0.614618 //w=0.301 //l=1.48 //layer=m1 \
 //thickness=0.36 //x=5.55 //y=0 //x2=7.03 //y2=0
r305 (  9 121 ) resistor r=3.1 //w=0.17 //l=0.51 //layer=mcon //count=3 \
 //x=4.44 //y=0 //x2=4.44 //y2=0
r306 (  9 11 ) resistor r=0.460963 //w=0.301 //l=1.11 //layer=m1 \
 //thickness=0.36 //x=4.44 //y=0 //x2=5.55 //y2=0
r307 (  7 38 ) resistor r=3.1 //w=0.17 //l=0.51 //layer=mcon //count=3 \
 //x=2.96 //y=0 //x2=2.96 //y2=0
r308 (  7 9 ) resistor r=0.614618 //w=0.301 //l=1.48 //layer=m1 \
 //thickness=0.36 //x=2.96 //y=0 //x2=4.44 //y2=0
r309 (  5 36 ) resistor r=3.1 //w=0.17 //l=0.51 //layer=mcon //count=3 \
 //x=1.85 //y=0 //x2=1.85 //y2=0
r310 (  5 7 ) resistor r=0.460963 //w=0.301 //l=1.11 //layer=m1 \
 //thickness=0.36 //x=1.85 //y=0 //x2=2.96 //y2=0
r311 (  2 28 ) resistor r=3.1 //w=0.17 //l=0.51 //layer=mcon //count=3 \
 //x=0.74 //y=0 //x2=0.74 //y2=0
r312 (  2 5 ) resistor r=0.460963 //w=0.301 //l=1.11 //layer=m1 \
 //thickness=0.36 //x=0.74 //y=0 //x2=1.85 //y2=0
ends PM_AOA4X1_PCELL\%noxref_1

subckt PM_AOA4X1_PCELL\%noxref_2 ( 21 33 41 57 67 83 93 113 126 129 131 136 \
 140 141 142 143 144 145 146 147 148 149 )
c141 ( 149 0 ) capacitor c=0.0451925f //x=11.4 //y=5.02
c142 ( 148 0 ) capacitor c=0.0429269f //x=10.53 //y=5.02
c143 ( 147 0 ) capacitor c=0.0383753f //x=9.065 //y=5.02
c144 ( 146 0 ) capacitor c=0.0243052f //x=8.185 //y=5.02
c145 ( 145 0 ) capacitor c=0.053196f //x=7.315 //y=5.02
c146 ( 144 0 ) capacitor c=0.0256796f //x=4.415 //y=5.025
c147 ( 143 0 ) capacitor c=0.0383753f //x=2.405 //y=5.02
c148 ( 142 0 ) capacitor c=0.0243052f //x=1.525 //y=5.02
c149 ( 141 0 ) capacitor c=0.053196f //x=0.655 //y=5.02
c150 ( 140 0 ) capacitor c=0.234796f //x=11.47 //y=7.4
c151 ( 138 0 ) capacitor c=0.00591168f //x=10.73 //y=7.4
c152 ( 136 0 ) capacitor c=0.111641f //x=9.99 //y=7.4
c153 ( 135 0 ) capacitor c=0.00591168f //x=9.25 //y=7.4
c154 ( 133 0 ) capacitor c=0.00591168f //x=8.33 //y=7.4
c155 ( 132 0 ) capacitor c=0.00591168f //x=7.45 //y=7.4
c156 ( 131 0 ) capacitor c=0.119284f //x=6.66 //y=7.4
c157 ( 130 0 ) capacitor c=0.00591168f //x=4.56 //y=7.4
c158 ( 129 0 ) capacitor c=0.116004f //x=3.33 //y=7.4
c159 ( 128 0 ) capacitor c=0.00591168f //x=2.55 //y=7.4
c160 ( 127 0 ) capacitor c=0.00591168f //x=1.67 //y=7.4
c161 ( 126 0 ) capacitor c=0.24846f //x=0.74 //y=7.4
c162 ( 113 0 ) capacitor c=0.028745f //x=11.46 //y=7.4
c163 ( 105 0 ) capacitor c=0.0216067f //x=10.58 //y=7.4
c164 ( 101 0 ) capacitor c=0.0275781f //x=9.82 //y=7.4
c165 ( 93 0 ) capacitor c=0.0285035f //x=9.125 //y=7.4
c166 ( 83 0 ) capacitor c=0.0286367f //x=8.245 //y=7.4
c167 ( 73 0 ) capacitor c=0.0281468f //x=7.365 //y=7.4
c168 ( 67 0 ) capacitor c=0.0778183f //x=6.49 //y=7.4
c169 ( 57 0 ) capacitor c=0.0465804f //x=4.475 //y=7.4
c170 ( 51 0 ) capacitor c=0.0275781f //x=3.16 //y=7.4
c171 ( 41 0 ) capacitor c=0.0285035f //x=2.465 //y=7.4
c172 ( 33 0 ) capacitor c=0.0286367f //x=1.585 //y=7.4
c173 ( 21 0 ) capacitor c=0.476129f //x=11.47 //y=7.4
r174 (  115 140 ) resistor r=4.11603 //w=0.68 //l=0.17 //layer=li \
 //thickness=0.1 //x=11.545 //y=7.23 //x2=11.545 //y2=7.4
r175 (  115 149 ) resistor r=56.4706 //w=0.187 //l=0.825 //layer=li \
 //thickness=0.1 //x=11.545 //y=7.23 //x2=11.545 //y2=6.405
r176 (  114 138 ) resistor r=2.94794 //w=0.34 //l=0.085 //layer=li \
 //thickness=0.1 //x=10.75 //y=7.4 //x2=10.665 //y2=7.4
r177 (  113 140 ) resistor r=2.94794 //w=0.34 //l=0.085 //layer=li \
 //thickness=0.1 //x=11.46 //y=7.4 //x2=11.545 //y2=7.4
r178 (  113 114 ) resistor r=25.4566 //w=0.357 //l=0.71 //layer=li \
 //thickness=0.1 //x=11.46 //y=7.4 //x2=10.75 //y2=7.4
r179 (  107 138 ) resistor r=4.11603 //w=0.68 //l=0.17 //layer=li \
 //thickness=0.1 //x=10.665 //y=7.23 //x2=10.665 //y2=7.4
r180 (  107 148 ) resistor r=56.4706 //w=0.187 //l=0.825 //layer=li \
 //thickness=0.1 //x=10.665 //y=7.23 //x2=10.665 //y2=6.405
r181 (  106 136 ) resistor r=5.4201 //w=0.34 //l=0.17 //layer=li \
 //thickness=0.1 //x=10.16 //y=7.4 //x2=9.99 //y2=7.4
r182 (  105 138 ) resistor r=2.94794 //w=0.34 //l=0.085 //layer=li \
 //thickness=0.1 //x=10.58 //y=7.4 //x2=10.665 //y2=7.4
r183 (  105 106 ) resistor r=15.0588 //w=0.357 //l=0.42 //layer=li \
 //thickness=0.1 //x=10.58 //y=7.4 //x2=10.16 //y2=7.4
r184 (  102 135 ) resistor r=2.94794 //w=0.34 //l=0.085 //layer=li \
 //thickness=0.1 //x=9.295 //y=7.4 //x2=9.21 //y2=7.4
r185 (  101 136 ) resistor r=5.4201 //w=0.34 //l=0.17 //layer=li \
 //thickness=0.1 //x=9.82 //y=7.4 //x2=9.99 //y2=7.4
r186 (  101 102 ) resistor r=18.8235 //w=0.357 //l=0.525 //layer=li \
 //thickness=0.1 //x=9.82 //y=7.4 //x2=9.295 //y2=7.4
r187 (  95 135 ) resistor r=4.11603 //w=0.68 //l=0.17 //layer=li \
 //thickness=0.1 //x=9.21 //y=7.23 //x2=9.21 //y2=7.4
r188 (  95 147 ) resistor r=33.1979 //w=0.187 //l=0.485 //layer=li \
 //thickness=0.1 //x=9.21 //y=7.23 //x2=9.21 //y2=6.745
r189 (  94 133 ) resistor r=2.94794 //w=0.34 //l=0.085 //layer=li \
 //thickness=0.1 //x=8.415 //y=7.4 //x2=8.33 //y2=7.4
r190 (  93 135 ) resistor r=2.94794 //w=0.34 //l=0.085 //layer=li \
 //thickness=0.1 //x=9.125 //y=7.4 //x2=9.21 //y2=7.4
r191 (  93 94 ) resistor r=25.4566 //w=0.357 //l=0.71 //layer=li \
 //thickness=0.1 //x=9.125 //y=7.4 //x2=8.415 //y2=7.4
r192 (  87 133 ) resistor r=4.11603 //w=0.68 //l=0.17 //layer=li \
 //thickness=0.1 //x=8.33 //y=7.23 //x2=8.33 //y2=7.4
r193 (  87 146 ) resistor r=33.1979 //w=0.187 //l=0.485 //layer=li \
 //thickness=0.1 //x=8.33 //y=7.23 //x2=8.33 //y2=6.745
r194 (  84 132 ) resistor r=2.94794 //w=0.34 //l=0.085 //layer=li \
 //thickness=0.1 //x=7.535 //y=7.4 //x2=7.45 //y2=7.4
r195 (  84 86 ) resistor r=21.6919 //w=0.357 //l=0.605 //layer=li \
 //thickness=0.1 //x=7.535 //y=7.4 //x2=8.14 //y2=7.4
r196 (  83 133 ) resistor r=2.94794 //w=0.34 //l=0.085 //layer=li \
 //thickness=0.1 //x=8.245 //y=7.4 //x2=8.33 //y2=7.4
r197 (  83 86 ) resistor r=3.76471 //w=0.357 //l=0.105 //layer=li \
 //thickness=0.1 //x=8.245 //y=7.4 //x2=8.14 //y2=7.4
r198 (  77 132 ) resistor r=4.11603 //w=0.68 //l=0.17 //layer=li \
 //thickness=0.1 //x=7.45 //y=7.23 //x2=7.45 //y2=7.4
r199 (  77 145 ) resistor r=56.4706 //w=0.187 //l=0.825 //layer=li \
 //thickness=0.1 //x=7.45 //y=7.23 //x2=7.45 //y2=6.405
r200 (  74 131 ) resistor r=5.4201 //w=0.34 //l=0.17 //layer=li \
 //thickness=0.1 //x=6.83 //y=7.4 //x2=6.66 //y2=7.4
r201 (  74 76 ) resistor r=7.17087 //w=0.357 //l=0.2 //layer=li \
 //thickness=0.1 //x=6.83 //y=7.4 //x2=7.03 //y2=7.4
r202 (  73 132 ) resistor r=2.94794 //w=0.34 //l=0.085 //layer=li \
 //thickness=0.1 //x=7.365 //y=7.4 //x2=7.45 //y2=7.4
r203 (  73 76 ) resistor r=12.0112 //w=0.357 //l=0.335 //layer=li \
 //thickness=0.1 //x=7.365 //y=7.4 //x2=7.03 //y2=7.4
r204 (  68 130 ) resistor r=2.94794 //w=0.34 //l=0.085 //layer=li \
 //thickness=0.1 //x=4.645 //y=7.4 //x2=4.56 //y2=7.4
r205 (  68 70 ) resistor r=32.4482 //w=0.357 //l=0.905 //layer=li \
 //thickness=0.1 //x=4.645 //y=7.4 //x2=5.55 //y2=7.4
r206 (  67 131 ) resistor r=5.4201 //w=0.34 //l=0.17 //layer=li \
 //thickness=0.1 //x=6.49 //y=7.4 //x2=6.66 //y2=7.4
r207 (  67 70 ) resistor r=33.7031 //w=0.357 //l=0.94 //layer=li \
 //thickness=0.1 //x=6.49 //y=7.4 //x2=5.55 //y2=7.4
r208 (  61 130 ) resistor r=4.11603 //w=0.68 //l=0.17 //layer=li \
 //thickness=0.1 //x=4.56 //y=7.23 //x2=4.56 //y2=7.4
r209 (  61 144 ) resistor r=33.5401 //w=0.187 //l=0.49 //layer=li \
 //thickness=0.1 //x=4.56 //y=7.23 //x2=4.56 //y2=6.74
r210 (  58 129 ) resistor r=5.4201 //w=0.34 //l=0.17 //layer=li \
 //thickness=0.1 //x=3.5 //y=7.4 //x2=3.33 //y2=7.4
r211 (  58 60 ) resistor r=33.7031 //w=0.357 //l=0.94 //layer=li \
 //thickness=0.1 //x=3.5 //y=7.4 //x2=4.44 //y2=7.4
r212 (  57 130 ) resistor r=2.94794 //w=0.34 //l=0.085 //layer=li \
 //thickness=0.1 //x=4.475 //y=7.4 //x2=4.56 //y2=7.4
r213 (  57 60 ) resistor r=1.2549 //w=0.357 //l=0.035 //layer=li \
 //thickness=0.1 //x=4.475 //y=7.4 //x2=4.44 //y2=7.4
r214 (  52 128 ) resistor r=2.94794 //w=0.34 //l=0.085 //layer=li \
 //thickness=0.1 //x=2.635 //y=7.4 //x2=2.55 //y2=7.4
r215 (  52 54 ) resistor r=11.6527 //w=0.357 //l=0.325 //layer=li \
 //thickness=0.1 //x=2.635 //y=7.4 //x2=2.96 //y2=7.4
r216 (  51 129 ) resistor r=5.4201 //w=0.34 //l=0.17 //layer=li \
 //thickness=0.1 //x=3.16 //y=7.4 //x2=3.33 //y2=7.4
r217 (  51 54 ) resistor r=7.17087 //w=0.357 //l=0.2 //layer=li \
 //thickness=0.1 //x=3.16 //y=7.4 //x2=2.96 //y2=7.4
r218 (  45 128 ) resistor r=4.11603 //w=0.68 //l=0.17 //layer=li \
 //thickness=0.1 //x=2.55 //y=7.23 //x2=2.55 //y2=7.4
r219 (  45 143 ) resistor r=33.1979 //w=0.187 //l=0.485 //layer=li \
 //thickness=0.1 //x=2.55 //y=7.23 //x2=2.55 //y2=6.745
r220 (  42 127 ) resistor r=2.94794 //w=0.34 //l=0.085 //layer=li \
 //thickness=0.1 //x=1.755 //y=7.4 //x2=1.67 //y2=7.4
r221 (  42 44 ) resistor r=3.40616 //w=0.357 //l=0.095 //layer=li \
 //thickness=0.1 //x=1.755 //y=7.4 //x2=1.85 //y2=7.4
r222 (  41 128 ) resistor r=2.94794 //w=0.34 //l=0.085 //layer=li \
 //thickness=0.1 //x=2.465 //y=7.4 //x2=2.55 //y2=7.4
r223 (  41 44 ) resistor r=22.0504 //w=0.357 //l=0.615 //layer=li \
 //thickness=0.1 //x=2.465 //y=7.4 //x2=1.85 //y2=7.4
r224 (  35 127 ) resistor r=4.11603 //w=0.68 //l=0.17 //layer=li \
 //thickness=0.1 //x=1.67 //y=7.23 //x2=1.67 //y2=7.4
r225 (  35 142 ) resistor r=33.1979 //w=0.187 //l=0.485 //layer=li \
 //thickness=0.1 //x=1.67 //y=7.23 //x2=1.67 //y2=6.745
r226 (  34 126 ) resistor r=2.94794 //w=0.34 //l=0.085 //layer=li \
 //thickness=0.1 //x=0.875 //y=7.4 //x2=0.79 //y2=7.4
r227 (  33 127 ) resistor r=2.94794 //w=0.34 //l=0.085 //layer=li \
 //thickness=0.1 //x=1.585 //y=7.4 //x2=1.67 //y2=7.4
r228 (  33 34 ) resistor r=25.4566 //w=0.357 //l=0.71 //layer=li \
 //thickness=0.1 //x=1.585 //y=7.4 //x2=0.875 //y2=7.4
r229 (  27 126 ) resistor r=4.11603 //w=0.68 //l=0.17 //layer=li \
 //thickness=0.1 //x=0.79 //y=7.23 //x2=0.79 //y2=7.4
r230 (  27 141 ) resistor r=56.4706 //w=0.187 //l=0.825 //layer=li \
 //thickness=0.1 //x=0.79 //y=7.23 //x2=0.79 //y2=6.405
r231 (  21 140 ) resistor r=4.65 //w=0.17 //l=0.34 //layer=mcon //count=2 \
 //x=11.47 //y=7.4 //x2=11.47 //y2=7.4
r232 (  19 138 ) resistor r=3.1 //w=0.17 //l=0.51 //layer=mcon //count=3 \
 //x=10.73 //y=7.4 //x2=10.73 //y2=7.4
r233 (  19 21 ) resistor r=0.307309 //w=0.301 //l=0.74 //layer=m1 \
 //thickness=0.36 //x=10.73 //y=7.4 //x2=11.47 //y2=7.4
r234 (  17 135 ) resistor r=3.1 //w=0.17 //l=0.51 //layer=mcon //count=3 \
 //x=9.25 //y=7.4 //x2=9.25 //y2=7.4
r235 (  17 19 ) resistor r=0.614618 //w=0.301 //l=1.48 //layer=m1 \
 //thickness=0.36 //x=9.25 //y=7.4 //x2=10.73 //y2=7.4
r236 (  15 86 ) resistor r=3.1 //w=0.17 //l=0.51 //layer=mcon //count=3 \
 //x=8.14 //y=7.4 //x2=8.14 //y2=7.4
r237 (  15 17 ) resistor r=0.460963 //w=0.301 //l=1.11 //layer=m1 \
 //thickness=0.36 //x=8.14 //y=7.4 //x2=9.25 //y2=7.4
r238 (  13 76 ) resistor r=3.1 //w=0.17 //l=0.51 //layer=mcon //count=3 \
 //x=7.03 //y=7.4 //x2=7.03 //y2=7.4
r239 (  13 15 ) resistor r=0.460963 //w=0.301 //l=1.11 //layer=m1 \
 //thickness=0.36 //x=7.03 //y=7.4 //x2=8.14 //y2=7.4
r240 (  11 70 ) resistor r=3.1 //w=0.17 //l=0.51 //layer=mcon //count=3 \
 //x=5.55 //y=7.4 //x2=5.55 //y2=7.4
r241 (  11 13 ) resistor r=0.614618 //w=0.301 //l=1.48 //layer=m1 \
 //thickness=0.36 //x=5.55 //y=7.4 //x2=7.03 //y2=7.4
r242 (  9 60 ) resistor r=3.1 //w=0.17 //l=0.51 //layer=mcon //count=3 \
 //x=4.44 //y=7.4 //x2=4.44 //y2=7.4
r243 (  9 11 ) resistor r=0.460963 //w=0.301 //l=1.11 //layer=m1 \
 //thickness=0.36 //x=4.44 //y=7.4 //x2=5.55 //y2=7.4
r244 (  7 54 ) resistor r=3.1 //w=0.17 //l=0.51 //layer=mcon //count=3 \
 //x=2.96 //y=7.4 //x2=2.96 //y2=7.4
r245 (  7 9 ) resistor r=0.614618 //w=0.301 //l=1.48 //layer=m1 \
 //thickness=0.36 //x=2.96 //y=7.4 //x2=4.44 //y2=7.4
r246 (  5 44 ) resistor r=3.1 //w=0.17 //l=0.51 //layer=mcon //count=3 \
 //x=1.85 //y=7.4 //x2=1.85 //y2=7.4
r247 (  5 7 ) resistor r=0.460963 //w=0.301 //l=1.11 //layer=m1 \
 //thickness=0.36 //x=1.85 //y=7.4 //x2=2.96 //y2=7.4
r248 (  2 126 ) resistor r=3.1 //w=0.17 //l=0.51 //layer=mcon //count=3 \
 //x=0.74 //y=7.4 //x2=0.74 //y2=7.4
r249 (  2 5 ) resistor r=0.460963 //w=0.301 //l=1.11 //layer=m1 \
 //thickness=0.36 //x=0.74 //y=7.4 //x2=1.85 //y2=7.4
ends PM_AOA4X1_PCELL\%noxref_2

subckt PM_AOA4X1_PCELL\%noxref_3 ( 1 2 13 14 25 27 28 32 35 39 41 43 44 45 46 \
 47 48 49 53 55 58 60 61 66 76 78 79 )
c144 ( 79 0 ) capacitor c=0.0220291f //x=1.965 //y=5.02
c145 ( 78 0 ) capacitor c=0.0217503f //x=1.085 //y=5.02
c146 ( 76 0 ) capacitor c=0.00865153f //x=1.96 //y=0.905
c147 ( 66 0 ) capacitor c=0.04214f //x=4.285 //y=4.705
c148 ( 61 0 ) capacitor c=0.0321911f //x=4.775 //y=1.25
c149 ( 60 0 ) capacitor c=0.0185201f //x=4.775 //y=0.905
c150 ( 58 0 ) capacitor c=0.0344254f //x=4.705 //y=4.795
c151 ( 55 0 ) capacitor c=0.0133656f //x=4.62 //y=1.405
c152 ( 53 0 ) capacitor c=0.0157804f //x=4.62 //y=0.75
c153 ( 49 0 ) capacitor c=0.0785055f //x=4.245 //y=1.915
c154 ( 48 0 ) capacitor c=0.022867f //x=4.245 //y=1.56
c155 ( 47 0 ) capacitor c=0.0234318f //x=4.245 //y=1.25
c156 ( 46 0 ) capacitor c=0.0192004f //x=4.245 //y=0.905
c157 ( 45 0 ) capacitor c=0.110795f //x=4.78 //y=6.025
c158 ( 44 0 ) capacitor c=0.153847f //x=4.34 //y=6.025
c159 ( 41 0 ) capacitor c=0.00995068f //x=4.285 //y=4.705
c160 ( 39 0 ) capacitor c=0.00427536f //x=2.11 //y=5.2
c161 ( 35 0 ) capacitor c=0.0968481f //x=4.44 //y=2.08
c162 ( 32 0 ) capacitor c=0.117241f //x=2.59 //y=2.59
c163 ( 28 0 ) capacitor c=0.00781917f //x=2.235 //y=1.655
c164 ( 27 0 ) capacitor c=0.0159132f //x=2.505 //y=1.655
c165 ( 25 0 ) capacitor c=0.017841f //x=2.505 //y=5.2
c166 ( 14 0 ) capacitor c=0.00387264f //x=1.315 //y=5.2
c167 ( 13 0 ) capacitor c=0.0222171f //x=2.025 //y=5.2
c168 ( 2 0 ) capacitor c=0.0173935f //x=2.705 //y=2.59
c169 ( 1 0 ) capacitor c=0.111807f //x=4.325 //y=2.59
r170 (  68 69 ) resistor r=32.4568 //w=0.214 //l=0.075 //layer=ply \
 //thickness=0.18 //x=4.285 //y=4.795 //x2=4.285 //y2=4.87
r171 (  66 68 ) resistor r=20.271 //w=0.214 //l=0.09 //layer=ply \
 //thickness=0.18 //x=4.285 //y=4.705 //x2=4.285 //y2=4.795
r172 (  61 75 ) resistor r=45.1352 //w=0.168 //l=0.173853 //layer=ply \
 //thickness=0.18 //x=4.775 //y=1.25 //x2=4.735 //y2=1.405
r173 (  60 74 ) resistor r=45.1352 //w=0.168 //l=0.173853 //layer=ply \
 //thickness=0.18 //x=4.775 //y=0.905 //x2=4.735 //y2=0.75
r174 (  60 61 ) resistor r=176.904 //w=0.094 //l=0.345 //layer=ply \
 //thickness=0.18 //x=4.775 //y=0.905 //x2=4.775 //y2=1.25
r175 (  59 68 ) resistor r=16.5046 //w=0.27 //l=0.135 //layer=ply \
 //thickness=0.18 //x=4.42 //y=4.795 //x2=4.285 //y2=4.795
r176 (  58 62 ) resistor r=26.9307 //w=0.15 //l=0.106066 //layer=ply \
 //thickness=0.18 //x=4.705 //y=4.795 //x2=4.78 //y2=4.87
r177 (  58 59 ) resistor r=146.138 //w=0.094 //l=0.285 //layer=ply \
 //thickness=0.18 //x=4.705 //y=4.795 //x2=4.42 //y2=4.795
r178 (  56 73 ) resistor r=10.701 //w=0.21 //l=0.115 //layer=ply \
 //thickness=0.18 //x=4.4 //y=1.405 //x2=4.285 //y2=1.405
r179 (  55 75 ) resistor r=5.52526 //w=0.168 //l=0.115 //layer=ply \
 //thickness=0.18 //x=4.62 //y=1.405 //x2=4.735 //y2=1.405
r180 (  54 72 ) resistor r=5.52526 //w=0.168 //l=0.115 //layer=ply \
 //thickness=0.18 //x=4.4 //y=0.75 //x2=4.285 //y2=0.75
r181 (  53 74 ) resistor r=5.52526 //w=0.168 //l=0.115 //layer=ply \
 //thickness=0.18 //x=4.62 //y=0.75 //x2=4.735 //y2=0.75
r182 (  53 54 ) resistor r=112.809 //w=0.094 //l=0.22 //layer=ply \
 //thickness=0.18 //x=4.62 //y=0.75 //x2=4.4 //y2=0.75
r183 (  49 71 ) resistor r=34.8111 //w=0.27 //l=0.264953 //layer=ply \
 //thickness=0.18 //x=4.245 //y=1.915 //x2=4.44 //y2=2.08