// File: AOA4X1.spi.AOA4X1.pxi
// Created: Tue Oct 15 15:44:57 2024
// 
simulator lang=spectre
x_PM_AOA4X1\%GND ( GND N_GND_c_14_p N_GND_c_90_p N_GND_c_1_p N_GND_c_97_p \
 N_GND_c_116_p N_GND_c_6_p N_GND_c_22_p N_GND_c_34_p N_GND_c_37_p \
 N_GND_c_154_p N_GND_c_43_p N_GND_c_50_p N_GND_c_150_p N_GND_c_62_p \
 N_GND_c_79_p N_GND_c_2_p N_GND_c_3_p N_GND_c_4_p N_GND_c_5_p \
 N_GND_M0_noxref_d N_GND_M2_noxref_s N_GND_M4_noxref_d N_GND_M6_noxref_s )  \
 PM_AOA4X1\%GND
x_PM_AOA4X1\%VDD ( VDD N_VDD_c_194_p N_VDD_c_176_p N_VDD_c_177_p N_VDD_c_188_p \
 N_VDD_c_191_p N_VDD_c_212_p N_VDD_c_224_p N_VDD_c_235_p N_VDD_c_170_n \
 N_VDD_c_171_n N_VDD_c_172_n N_VDD_c_173_n N_VDD_c_174_n N_VDD_M7_noxref_s \
 N_VDD_M8_noxref_d N_VDD_M10_noxref_d N_VDD_M11_noxref_d N_VDD_M15_noxref_s \
 N_VDD_M16_noxref_d N_VDD_M18_noxref_d N_VDD_M19_noxref_s N_VDD_M20_noxref_d ) \
 PM_AOA4X1\%VDD
x_PM_AOA4X1\%noxref_3 ( N_noxref_3_c_311_n N_noxref_3_c_314_n \
 N_noxref_3_c_334_n N_noxref_3_c_337_n N_noxref_3_c_339_n N_noxref_3_c_315_n \
 N_noxref_3_c_410_p N_noxref_3_c_317_n N_noxref_3_c_319_n N_noxref_3_c_398_p \
 N_noxref_3_c_344_n N_noxref_3_M2_noxref_g N_noxref_3_M11_noxref_g \
 N_noxref_3_M12_noxref_g N_noxref_3_c_322_n N_noxref_3_c_372_p \
 N_noxref_3_c_373_p N_noxref_3_c_324_n N_noxref_3_c_326_n N_noxref_3_c_376_p \
 N_noxref_3_c_419_p N_noxref_3_c_327_n N_noxref_3_c_329_n N_noxref_3_c_351_n \
 N_noxref_3_M1_noxref_d N_noxref_3_M7_noxref_d N_noxref_3_M9_noxref_d )  \
 PM_AOA4X1\%noxref_3
x_PM_AOA4X1\%noxref_4 ( N_noxref_4_c_455_n N_noxref_4_c_457_n \
 N_noxref_4_c_459_n N_noxref_4_c_507_n N_noxref_4_c_490_n N_noxref_4_c_492_n \
 N_noxref_4_c_463_n N_noxref_4_c_467_n N_noxref_4_c_469_n \
 N_noxref_4_M4_noxref_g N_noxref_4_M15_noxref_g N_noxref_4_M16_noxref_g \
 N_noxref_4_c_470_n N_noxref_4_c_472_n N_noxref_4_c_473_n N_noxref_4_c_474_n \
 N_noxref_4_c_475_n N_noxref_4_c_476_n N_noxref_4_c_477_n N_noxref_4_c_479_n \
 N_noxref_4_c_501_n N_noxref_4_M2_noxref_d N_noxref_4_M3_noxref_d \
 N_noxref_4_M13_noxref_d )  PM_AOA4X1\%noxref_4
x_PM_AOA4X1\%noxref_5 ( N_noxref_5_c_597_n N_noxref_5_c_600_n \
 N_noxref_5_c_625_n N_noxref_5_c_628_n N_noxref_5_c_630_n N_noxref_5_c_601_n \
 N_noxref_5_c_691_p N_noxref_5_c_603_n N_noxref_5_c_605_n N_noxref_5_c_679_p \
 N_noxref_5_M6_noxref_g N_noxref_5_M19_noxref_g N_noxref_5_M20_noxref_g \
 N_noxref_5_c_610_n N_noxref_5_c_711_p N_noxref_5_c_712_p N_noxref_5_c_612_n \
 N_noxref_5_c_642_n N_noxref_5_c_643_n N_noxref_5_c_613_n N_noxref_5_c_703_p \
 N_noxref_5_c_614_n N_noxref_5_c_616_n N_noxref_5_c_617_n \
 N_noxref_5_M5_noxref_d N_noxref_5_M15_noxref_d N_noxref_5_M17_noxref_d )  \
 PM_AOA4X1\%noxref_5
x_PM_AOA4X1\%A ( A A A A A A A N_A_c_723_n N_A_M0_noxref_g N_A_M7_noxref_g \
 N_A_M8_noxref_g N_A_c_724_n N_A_c_726_n N_A_c_727_n N_A_c_728_n N_A_c_729_n \
 N_A_c_730_n N_A_c_731_n N_A_c_733_n N_A_c_740_n )  PM_AOA4X1\%A
x_PM_AOA4X1\%B ( B B B B B B B N_B_c_787_n N_B_c_778_n N_B_M1_noxref_g \
 N_B_M9_noxref_g N_B_M10_noxref_g N_B_c_796_n N_B_c_797_n N_B_c_798_n \
 N_B_c_799_n N_B_c_801_n N_B_c_802_n N_B_c_804_n N_B_c_805_n N_B_c_807_n \
 N_B_c_808_n N_B_c_810_n )  PM_AOA4X1\%B
x_PM_AOA4X1\%noxref_8 ( N_noxref_8_c_866_n N_noxref_8_c_842_n \
 N_noxref_8_c_846_n N_noxref_8_c_850_n N_noxref_8_c_851_n N_noxref_8_c_854_n \
 N_noxref_8_M0_noxref_s )  PM_AOA4X1\%noxref_8
x_PM_AOA4X1\%C ( C C C C C C C N_C_c_906_n N_C_c_893_n N_C_M3_noxref_g \
 N_C_M13_noxref_g N_C_M14_noxref_g N_C_c_895_n N_C_c_918_n N_C_c_921_n \
 N_C_c_945_n N_C_c_897_n N_C_c_898_n N_C_c_899_n N_C_c_925_n N_C_c_926_n \
 N_C_c_928_n N_C_c_929_n )  PM_AOA4X1\%C
x_PM_AOA4X1\%noxref_10 ( N_noxref_10_c_964_n N_noxref_10_c_968_n \
 N_noxref_10_c_969_n N_noxref_10_c_970_n N_noxref_10_M11_noxref_s \
 N_noxref_10_M12_noxref_d N_noxref_10_M14_noxref_d )  PM_AOA4X1\%noxref_10
x_PM_AOA4X1\%D ( D D D D D D D N_D_c_1016_n N_D_c_1007_n N_D_M5_noxref_g \
 N_D_M17_noxref_g N_D_M18_noxref_g N_D_c_1025_n N_D_c_1028_n N_D_c_1030_n \
 N_D_c_1051_n N_D_c_1053_n N_D_c_1054_n N_D_c_1033_n N_D_c_1034_n N_D_c_1035_n \
 N_D_c_1060_n N_D_c_1037_n )  PM_AOA4X1\%D
x_PM_AOA4X1\%noxref_12 ( N_noxref_12_c_1098_n N_noxref_12_c_1073_n \
 N_noxref_12_c_1077_n N_noxref_12_c_1081_n N_noxref_12_c_1082_n \
 N_noxref_12_c_1085_n N_noxref_12_M4_noxref_s )  PM_AOA4X1\%noxref_12
x_PM_AOA4X1\%Y ( Y Y Y Y Y Y Y N_Y_c_1129_n N_Y_c_1152_n N_Y_c_1139_n \
 N_Y_c_1141_n N_Y_M6_noxref_d N_Y_M19_noxref_d )  PM_AOA4X1\%Y
cc_1 ( N_GND_c_1_p N_VDD_c_170_n ) capacitor c=0.00989031f //x=0.74 //y=0 \
 //x2=0.74 //y2=7.4
cc_2 ( N_GND_c_2_p N_VDD_c_171_n ) capacitor c=0.00962895f //x=3.33 //y=0 \
 //x2=3.33 //y2=7.4
cc_3 ( N_GND_c_3_p N_VDD_c_172_n ) capacitor c=0.00962895f //x=6.66 //y=0 \
 //x2=6.66 //y2=7.4
cc_4 ( N_GND_c_4_p N_VDD_c_173_n ) capacitor c=0.00962895f //x=9.99 //y=0 \
 //x2=9.99 //y2=7.4
cc_5 ( N_GND_c_5_p N_VDD_c_174_n ) capacitor c=0.00989031f //x=11.59 //y=0 \
 //x2=11.47 //y2=7.4
cc_6 ( N_GND_c_6_p N_noxref_3_c_311_n ) capacitor c=7.22787e-19 //x=4.425 \
 //y=0.53 //x2=4.325 //y2=2.59
cc_7 ( N_GND_c_2_p N_noxref_3_c_311_n ) capacitor c=0.0435449f //x=3.33 //y=0 \
 //x2=4.325 //y2=2.59
cc_8 ( N_GND_M2_noxref_s N_noxref_3_c_311_n ) capacitor c=0.00494344f //x=3.89 \
 //y=0.365 //x2=4.325 //y2=2.59
cc_9 ( N_GND_c_2_p N_noxref_3_c_314_n ) capacitor c=0.00102529f //x=3.33 //y=0 \
 //x2=2.705 //y2=2.59
cc_10 ( N_GND_c_2_p N_noxref_3_c_315_n ) capacitor c=0.0431271f //x=3.33 //y=0 \
 //x2=2.505 //y2=1.655
cc_11 ( N_GND_M2_noxref_s N_noxref_3_c_315_n ) capacitor c=3.00901e-19 \
 //x=3.89 //y=0.365 //x2=2.505 //y2=1.655
cc_12 ( N_GND_c_1_p N_noxref_3_c_317_n ) capacitor c=0.00101801f //x=0.74 \
 //y=0 //x2=2.59 //y2=2.59
cc_13 ( N_GND_c_2_p N_noxref_3_c_317_n ) capacitor c=5.56859e-19 //x=3.33 \
 //y=0 //x2=2.59 //y2=2.59
cc_14 ( N_GND_c_14_p N_noxref_3_c_319_n ) capacitor c=6.7762e-19 //x=11.47 \
 //y=0 //x2=4.44 //y2=2.08
cc_15 ( N_GND_c_6_p N_noxref_3_c_319_n ) capacitor c=0.00133118f //x=4.425 \
 //y=0.53 //x2=4.44 //y2=2.08
cc_16 ( N_GND_c_2_p N_noxref_3_c_319_n ) capacitor c=0.0147015f //x=3.33 //y=0 \
 //x2=4.44 //y2=2.08
cc_17 ( N_GND_c_6_p N_noxref_3_c_322_n ) capacitor c=0.0122561f //x=4.425 \
 //y=0.53 //x2=4.245 //y2=0.905
cc_18 ( N_GND_M2_noxref_s N_noxref_3_c_322_n ) capacitor c=0.0318086f //x=3.89 \
 //y=0.365 //x2=4.245 //y2=0.905
cc_19 ( N_GND_c_6_p N_noxref_3_c_324_n ) capacitor c=2.1838e-19 //x=4.425 \
 //y=0.53 //x2=4.245 //y2=1.915
cc_20 ( N_GND_c_2_p N_noxref_3_c_324_n ) capacitor c=0.0131707f //x=3.33 //y=0 \
 //x2=4.245 //y2=1.915
cc_21 ( N_GND_M2_noxref_s N_noxref_3_c_326_n ) capacitor c=0.00476335f \
 //x=3.89 //y=0.365 //x2=4.62 //y2=0.75
cc_22 ( N_GND_c_22_p N_noxref_3_c_327_n ) capacitor c=0.0113279f //x=4.91 \
 //y=0.53 //x2=4.775 //y2=0.905
cc_23 ( N_GND_M2_noxref_s N_noxref_3_c_327_n ) capacitor c=0.00514143f \
 //x=3.89 //y=0.365 //x2=4.775 //y2=0.905
cc_24 ( N_GND_M2_noxref_s N_noxref_3_c_329_n ) capacitor c=8.33128e-19 \
 //x=3.89 //y=0.365 //x2=4.775 //y2=1.25
cc_25 ( N_GND_c_1_p N_noxref_3_M1_noxref_d ) capacitor c=8.58106e-19 //x=0.74 \
 //y=0 //x2=1.96 //y2=0.905
cc_26 ( N_GND_c_2_p N_noxref_3_M1_noxref_d ) capacitor c=0.00616547f //x=3.33 \
 //y=0 //x2=1.96 //y2=0.905
cc_27 ( N_GND_M0_noxref_d N_noxref_3_M1_noxref_d ) capacitor c=0.00143464f \
 //x=0.99 //y=0.865 //x2=1.96 //y2=0.905
cc_28 ( N_GND_c_3_p N_noxref_4_c_455_n ) capacitor c=0.0435449f //x=6.66 //y=0 \
 //x2=7.655 //y2=2.59
cc_29 ( N_GND_M2_noxref_s N_noxref_4_c_455_n ) capacitor c=3.07321e-19 \
 //x=3.89 //y=0.365 //x2=7.655 //y2=2.59
cc_30 ( N_GND_c_3_p N_noxref_4_c_457_n ) capacitor c=0.00102529f //x=6.66 \
 //y=0 //x2=6.035 //y2=2.59
cc_31 ( N_GND_M2_noxref_s N_noxref_4_c_457_n ) capacitor c=0.00162156f \
 //x=3.89 //y=0.365 //x2=6.035 //y2=2.59
cc_32 ( N_GND_c_14_p N_noxref_4_c_459_n ) capacitor c=0.00359057f //x=11.47 \
 //y=0 //x2=5.395 //y2=1.655
cc_33 ( N_GND_c_22_p N_noxref_4_c_459_n ) capacitor c=0.00381844f //x=4.91 \
 //y=0.53 //x2=5.395 //y2=1.655
cc_34 ( N_GND_c_34_p N_noxref_4_c_459_n ) capacitor c=0.00323369f //x=5.395 \
 //y=0.53 //x2=5.395 //y2=1.655
cc_35 ( N_GND_M2_noxref_s N_noxref_4_c_459_n ) capacitor c=0.0173679f //x=3.89 \
 //y=0.365 //x2=5.395 //y2=1.655
cc_36 ( N_GND_c_14_p N_noxref_4_c_463_n ) capacitor c=0.00232664f //x=11.47 \
 //y=0 //x2=5.835 //y2=1.655
cc_37 ( N_GND_c_37_p N_noxref_4_c_463_n ) capacitor c=0.0047903f //x=5.88 \
 //y=0.53 //x2=5.835 //y2=1.655
cc_38 ( N_GND_c_3_p N_noxref_4_c_463_n ) capacitor c=0.04345f //x=6.66 //y=0 \
 //x2=5.835 //y2=1.655
cc_39 ( N_GND_M2_noxref_s N_noxref_4_c_463_n ) capacitor c=0.0145566f //x=3.89 \
 //y=0.365 //x2=5.835 //y2=1.655
cc_40 ( N_GND_c_2_p N_noxref_4_c_467_n ) capacitor c=9.64732e-19 //x=3.33 \
 //y=0 //x2=5.92 //y2=2.59
cc_41 ( N_GND_c_3_p N_noxref_4_c_467_n ) capacitor c=5.56859e-19 //x=6.66 \
 //y=0 //x2=5.92 //y2=2.59
cc_42 ( N_GND_c_3_p N_noxref_4_c_469_n ) capacitor c=0.0150626f //x=6.66 //y=0 \
 //x2=7.77 //y2=2.08
cc_43 ( N_GND_c_43_p N_noxref_4_c_470_n ) capacitor c=0.00135046f //x=7.755 \
 //y=0 //x2=7.575 //y2=0.865
cc_44 ( N_GND_M4_noxref_d N_noxref_4_c_470_n ) capacitor c=0.00220047f \
 //x=7.65 //y=0.865 //x2=7.575 //y2=0.865
cc_45 ( N_GND_M4_noxref_d N_noxref_4_c_472_n ) capacitor c=0.00255985f \
 //x=7.65 //y=0.865 //x2=7.575 //y2=1.21
cc_46 ( N_GND_c_3_p N_noxref_4_c_473_n ) capacitor c=0.0018059f //x=6.66 //y=0 \
 //x2=7.575 //y2=1.52
cc_47 ( N_GND_c_3_p N_noxref_4_c_474_n ) capacitor c=0.0114883f //x=6.66 //y=0 \
 //x2=7.575 //y2=1.915
cc_48 ( N_GND_M4_noxref_d N_noxref_4_c_475_n ) capacitor c=0.0131326f //x=7.65 \
 //y=0.865 //x2=7.95 //y2=0.71
cc_49 ( N_GND_M4_noxref_d N_noxref_4_c_476_n ) capacitor c=0.00193127f \
 //x=7.65 //y=0.865 //x2=7.95 //y2=1.365
cc_50 ( N_GND_c_50_p N_noxref_4_c_477_n ) capacitor c=0.00130622f //x=9.82 \
 //y=0 //x2=8.105 //y2=0.865
cc_51 ( N_GND_M4_noxref_d N_noxref_4_c_477_n ) capacitor c=0.00257848f \
 //x=7.65 //y=0.865 //x2=8.105 //y2=0.865
cc_52 ( N_GND_M4_noxref_d N_noxref_4_c_479_n ) capacitor c=0.00255985f \
 //x=7.65 //y=0.865 //x2=8.105 //y2=1.21
cc_53 ( N_GND_c_14_p N_noxref_4_M2_noxref_d ) capacitor c=0.00175924f \
 //x=11.47 //y=0 //x2=4.32 //y2=0.905
cc_54 ( N_GND_c_2_p N_noxref_4_M2_noxref_d ) capacitor c=0.00416273f //x=3.33 \
 //y=0 //x2=4.32 //y2=0.905
cc_55 ( N_GND_c_3_p N_noxref_4_M2_noxref_d ) capacitor c=2.57516e-19 //x=6.66 \
 //y=0 //x2=4.32 //y2=0.905
cc_56 ( N_GND_c_5_p N_noxref_4_M2_noxref_d ) capacitor c=2.31043e-19 //x=11.59 \
 //y=0 //x2=4.32 //y2=0.905
cc_57 ( N_GND_M2_noxref_s N_noxref_4_M2_noxref_d ) capacitor c=0.0769466f \
 //x=3.89 //y=0.365 //x2=4.32 //y2=0.905
cc_58 ( N_GND_c_14_p N_noxref_4_M3_noxref_d ) capacitor c=0.00195394f \
 //x=11.47 //y=0 //x2=5.29 //y2=0.905
cc_59 ( N_GND_c_3_p N_noxref_4_M3_noxref_d ) capacitor c=0.00609243f //x=6.66 \
 //y=0 //x2=5.29 //y2=0.905
cc_60 ( N_GND_c_5_p N_noxref_4_M3_noxref_d ) capacitor c=2.31043e-19 //x=11.59 \
 //y=0 //x2=5.29 //y2=0.905
cc_61 ( N_GND_M2_noxref_s N_noxref_4_M3_noxref_d ) capacitor c=0.0610175f \
 //x=3.89 //y=0.365 //x2=5.29 //y2=0.905
cc_62 ( N_GND_c_62_p N_noxref_5_c_597_n ) capacitor c=2.8021e-19 //x=11.02 \
 //y=0.535 //x2=10.615 //y2=2.59
cc_63 ( N_GND_c_4_p N_noxref_5_c_597_n ) capacitor c=0.0424932f //x=9.99 //y=0 \
 //x2=10.615 //y2=2.59
cc_64 ( N_GND_M6_noxref_s N_noxref_5_c_597_n ) capacitor c=0.00380483f \
 //x=10.485 //y=0.37 //x2=10.615 //y2=2.59
cc_65 ( N_GND_c_4_p N_noxref_5_c_600_n ) capacitor c=9.11674e-19 //x=9.99 \
 //y=0 //x2=9.365 //y2=2.59
cc_66 ( N_GND_c_4_p N_noxref_5_c_601_n ) capacitor c=0.0429465f //x=9.99 //y=0 \
 //x2=9.165 //y2=1.655
cc_67 ( N_GND_M6_noxref_s N_noxref_5_c_601_n ) capacitor c=3.37896e-19 \
 //x=10.485 //y=0.37 //x2=9.165 //y2=1.655
cc_68 ( N_GND_c_3_p N_noxref_5_c_603_n ) capacitor c=9.64732e-19 //x=6.66 \
 //y=0 //x2=9.25 //y2=2.59
cc_69 ( N_GND_c_4_p N_noxref_5_c_603_n ) capacitor c=5.56859e-19 //x=9.99 \
 //y=0 //x2=9.25 //y2=2.59
cc_70 ( N_GND_c_14_p N_noxref_5_c_605_n ) capacitor c=0.00203213f //x=11.47 \
 //y=0 //x2=10.73 //y2=2.085
cc_71 ( N_GND_c_62_p N_noxref_5_c_605_n ) capacitor c=7.79915e-19 //x=11.02 \
 //y=0.535 //x2=10.73 //y2=2.085
cc_72 ( N_GND_c_4_p N_noxref_5_c_605_n ) capacitor c=0.0264037f //x=9.99 //y=0 \
 //x2=10.73 //y2=2.085
cc_73 ( N_GND_c_5_p N_noxref_5_c_605_n ) capacitor c=0.00135052f //x=11.59 \
 //y=0 //x2=10.73 //y2=2.085
cc_74 ( N_GND_M6_noxref_s N_noxref_5_c_605_n ) capacitor c=0.0105356f \
 //x=10.485 //y=0.37 //x2=10.73 //y2=2.085
cc_75 ( N_GND_c_62_p N_noxref_5_c_610_n ) capacitor c=0.0121126f //x=11.02 \
 //y=0.535 //x2=10.84 //y2=0.91
cc_76 ( N_GND_M6_noxref_s N_noxref_5_c_610_n ) capacitor c=0.0317792f \
 //x=10.485 //y=0.37 //x2=10.84 //y2=0.91
cc_77 ( N_GND_c_4_p N_noxref_5_c_612_n ) capacitor c=0.0056248f //x=9.99 //y=0 \
 //x2=10.84 //y2=1.92
cc_78 ( N_GND_M6_noxref_s N_noxref_5_c_613_n ) capacitor c=0.00483274f \
 //x=10.485 //y=0.37 //x2=11.215 //y2=0.755
cc_79 ( N_GND_c_79_p N_noxref_5_c_614_n ) capacitor c=0.0118602f //x=11.505 \
 //y=0.535 //x2=11.37 //y2=0.91
cc_80 ( N_GND_M6_noxref_s N_noxref_5_c_614_n ) capacitor c=0.0143355f \
 //x=10.485 //y=0.37 //x2=11.37 //y2=0.91
cc_81 ( N_GND_M6_noxref_s N_noxref_5_c_616_n ) capacitor c=0.0074042f \
 //x=10.485 //y=0.37 //x2=11.37 //y2=1.255
cc_82 ( N_GND_c_62_p N_noxref_5_c_617_n ) capacitor c=2.1838e-19 //x=11.02 \
 //y=0.535 //x2=10.73 //y2=2.085
cc_83 ( N_GND_c_4_p N_noxref_5_c_617_n ) capacitor c=0.0108179f //x=9.99 //y=0 \
 //x2=10.73 //y2=2.085
cc_84 ( N_GND_M6_noxref_s N_noxref_5_c_617_n ) capacitor c=0.00652238f \
 //x=10.485 //y=0.37 //x2=10.73 //y2=2.085
cc_85 ( N_GND_c_3_p N_noxref_5_M5_noxref_d ) capacitor c=8.58106e-19 //x=6.66 \
 //y=0 //x2=8.62 //y2=0.905
cc_86 ( N_GND_c_4_p N_noxref_5_M5_noxref_d ) capacitor c=0.00616547f //x=9.99 \
 //y=0 //x2=8.62 //y2=0.905
cc_87 ( N_GND_M4_noxref_d N_noxref_5_M5_noxref_d ) capacitor c=0.00143464f \
 //x=7.65 //y=0.865 //x2=8.62 //y2=0.905
cc_88 ( N_GND_M6_noxref_s N_noxref_5_M5_noxref_d ) capacitor c=2.09402e-19 \
 //x=10.485 //y=0.37 //x2=8.62 //y2=0.905
cc_89 ( N_GND_c_1_p N_A_c_723_n ) capacitor c=0.0180518f //x=0.74 //y=0 \
 //x2=1.11 //y2=2.08
cc_90 ( N_GND_c_90_p N_A_c_724_n ) capacitor c=0.00135046f //x=1.095 //y=0 \
 //x2=0.915 //y2=0.865
cc_91 ( N_GND_M0_noxref_d N_A_c_724_n ) capacitor c=0.00220047f //x=0.99 \
 //y=0.865 //x2=0.915 //y2=0.865
cc_92 ( N_GND_M0_noxref_d N_A_c_726_n ) capacitor c=0.00255985f //x=0.99 \
 //y=0.865 //x2=0.915 //y2=1.21
cc_93 ( N_GND_c_1_p N_A_c_727_n ) capacitor c=0.00264481f //x=0.74 //y=0 \
 //x2=0.915 //y2=1.52
cc_94 ( N_GND_c_1_p N_A_c_728_n ) capacitor c=0.0121947f //x=0.74 //y=0 \
 //x2=0.915 //y2=1.915
cc_95 ( N_GND_M0_noxref_d N_A_c_729_n ) capacitor c=0.0131326f //x=0.99 \
 //y=0.865 //x2=1.29 //y2=0.71
cc_96 ( N_GND_M0_noxref_d N_A_c_730_n ) capacitor c=0.00193127f //x=0.99 \
 //y=0.865 //x2=1.29 //y2=1.365
cc_97 ( N_GND_c_97_p N_A_c_731_n ) capacitor c=0.00130622f //x=3.16 //y=0 \
 //x2=1.445 //y2=0.865
cc_98 ( N_GND_M0_noxref_d N_A_c_731_n ) capacitor c=0.00257848f //x=0.99 \
 //y=0.865 //x2=1.445 //y2=0.865
cc_99 ( N_GND_M0_noxref_d N_A_c_733_n ) capacitor c=0.00255985f //x=0.99 \
 //y=0.865 //x2=1.445 //y2=1.21
cc_100 ( N_GND_c_1_p N_B_c_778_n ) capacitor c=9.2064e-19 //x=0.74 //y=0 \
 //x2=1.85 //y2=2.08
cc_101 ( N_GND_c_2_p N_B_c_778_n ) capacitor c=0.00110071f //x=3.33 //y=0 \
 //x2=1.85 //y2=2.08
cc_102 ( N_GND_c_14_p N_noxref_8_c_842_n ) capacitor c=0.00710948f //x=11.47 \
 //y=0 //x2=1.58 //y2=1.58
cc_103 ( N_GND_c_90_p N_noxref_8_c_842_n ) capacitor c=0.00111428f //x=1.095 \
 //y=0 //x2=1.58 //y2=1.58
cc_104 ( N_GND_c_97_p N_noxref_8_c_842_n ) capacitor c=0.00180846f //x=3.16 \
 //y=0 //x2=1.58 //y2=1.58
cc_105 ( N_GND_M0_noxref_d N_noxref_8_c_842_n ) capacitor c=0.0090983f \
 //x=0.99 //y=0.865 //x2=1.58 //y2=1.58
cc_106 ( N_GND_c_14_p N_noxref_8_c_846_n ) capacitor c=0.00723598f //x=11.47 \
 //y=0 //x2=1.665 //y2=0.615
cc_107 ( N_GND_c_97_p N_noxref_8_c_846_n ) capacitor c=0.0146208f //x=3.16 \
 //y=0 //x2=1.665 //y2=0.615
cc_108 ( N_GND_c_5_p N_noxref_8_c_846_n ) capacitor c=0.00145873f //x=11.59 \
 //y=0 //x2=1.665 //y2=0.615
cc_109 ( N_GND_M0_noxref_d N_noxref_8_c_846_n ) capacitor c=0.033812f //x=0.99 \
 //y=0.865 //x2=1.665 //y2=0.615
cc_110 ( N_GND_c_1_p N_noxref_8_c_850_n ) capacitor c=2.91423e-19 //x=0.74 \
 //y=0 //x2=1.665 //y2=1.495
cc_111 ( N_GND_c_14_p N_noxref_8_c_851_n ) capacitor c=0.0199727f //x=11.47 \
 //y=0 //x2=2.55 //y2=0.53
cc_112 ( N_GND_c_97_p N_noxref_8_c_851_n ) capacitor c=0.0371035f //x=3.16 \
 //y=0 //x2=2.55 //y2=0.53
cc_113 ( N_GND_c_5_p N_noxref_8_c_851_n ) capacitor c=0.00199095f //x=11.59 \
 //y=0 //x2=2.55 //y2=0.53
cc_114 ( N_GND_c_14_p N_noxref_8_c_854_n ) capacitor c=0.00719615f //x=11.47 \
 //y=0 //x2=2.635 //y2=0.615
cc_115 ( N_GND_c_97_p N_noxref_8_c_854_n ) capacitor c=0.0144264f //x=3.16 \
 //y=0 //x2=2.635 //y2=0.615
cc_116 ( N_GND_c_116_p N_noxref_8_c_854_n ) capacitor c=9.02073e-19 //x=4.025 \
 //y=0.445 //x2=2.635 //y2=0.615
cc_117 ( N_GND_c_2_p N_noxref_8_c_854_n ) capacitor c=0.0431718f //x=3.33 \
 //y=0 //x2=2.635 //y2=0.615
cc_118 ( N_GND_c_5_p N_noxref_8_c_854_n ) capacitor c=0.00145015f //x=11.59 \
 //y=0 //x2=2.635 //y2=0.615
cc_119 ( N_GND_c_14_p N_noxref_8_M0_noxref_s ) capacitor c=0.00723598f \
 //x=11.47 //y=0 //x2=0.56 //y2=0.365
cc_120 ( N_GND_c_90_p N_noxref_8_M0_noxref_s ) capacitor c=0.0146208f \
 //x=1.095 //y=0 //x2=0.56 //y2=0.365
cc_121 ( N_GND_c_1_p N_noxref_8_M0_noxref_s ) capacitor c=0.0594057f //x=0.74 \
 //y=0 //x2=0.56 //y2=0.365
cc_122 ( N_GND_c_2_p N_noxref_8_M0_noxref_s ) capacitor c=0.00198043f //x=3.33 \
 //y=0 //x2=0.56 //y2=0.365
cc_123 ( N_GND_c_5_p N_noxref_8_M0_noxref_s ) capacitor c=0.00145873f \
 //x=11.59 //y=0 //x2=0.56 //y2=0.365
cc_124 ( N_GND_M0_noxref_d N_noxref_8_M0_noxref_s ) capacitor c=0.0334197f \
 //x=0.99 //y=0.865 //x2=0.56 //y2=0.365
cc_125 ( N_GND_M2_noxref_s N_noxref_8_M0_noxref_s ) capacitor c=9.02073e-19 \
 //x=3.89 //y=0.365 //x2=0.56 //y2=0.365
cc_126 ( N_GND_c_2_p N_C_c_893_n ) capacitor c=0.00112835f //x=3.33 //y=0 \
 //x2=5.18 //y2=2.08
cc_127 ( N_GND_c_3_p N_C_c_893_n ) capacitor c=0.00110071f //x=6.66 //y=0 \
 //x2=5.18 //y2=2.08
cc_128 ( N_GND_c_34_p N_C_c_895_n ) capacitor c=0.0109802f //x=5.395 //y=0.53 \
 //x2=5.215 //y2=0.905
cc_129 ( N_GND_M2_noxref_s N_C_c_895_n ) capacitor c=0.00590563f //x=3.89 \
 //y=0.365 //x2=5.215 //y2=0.905
cc_130 ( N_GND_M2_noxref_s N_C_c_897_n ) capacitor c=0.00466751f //x=3.89 \
 //y=0.365 //x2=5.59 //y2=0.75
cc_131 ( N_GND_M2_noxref_s N_C_c_898_n ) capacitor c=0.00316186f //x=3.89 \
 //y=0.365 //x2=5.59 //y2=1.405
cc_132 ( N_GND_c_37_p N_C_c_899_n ) capacitor c=0.0112321f //x=5.88 //y=0.53 \
 //x2=5.745 //y2=0.905
cc_133 ( N_GND_M2_noxref_s N_C_c_899_n ) capacitor c=0.0142835f //x=3.89 \
 //y=0.365 //x2=5.745 //y2=0.905
cc_134 ( N_GND_c_3_p N_D_c_1007_n ) capacitor c=0.00112835f //x=6.66 //y=0 \
 //x2=8.51 //y2=2.08
cc_135 ( N_GND_c_4_p N_D_c_1007_n ) capacitor c=0.00110071f //x=9.99 //y=0 \
 //x2=8.51 //y2=2.08
cc_136 ( N_GND_c_14_p N_noxref_12_c_1073_n ) capacitor c=0.00708088f //x=11.47 \
 //y=0 //x2=8.24 //y2=1.58
cc_137 ( N_GND_c_43_p N_noxref_12_c_1073_n ) capacitor c=0.00111428f //x=7.755 \
 //y=0 //x2=8.24 //y2=1.58
cc_138 ( N_GND_c_50_p N_noxref_12_c_1073_n ) capacitor c=0.00180846f //x=9.82 \
 //y=0 //x2=8.24 //y2=1.58
cc_139 ( N_GND_M4_noxref_d N_noxref_12_c_1073_n ) capacitor c=0.00880942f \
 //x=7.65 //y=0.865 //x2=8.24 //y2=1.58
cc_140 ( N_GND_c_14_p N_noxref_12_c_1077_n ) capacitor c=0.00723598f //x=11.47 \
 //y=0 //x2=8.325 //y2=0.615
cc_141 ( N_GND_c_50_p N_noxref_12_c_1077_n ) capacitor c=0.0146208f //x=9.82 \
 //y=0 //x2=8.325 //y2=0.615
cc_142 ( N_GND_c_5_p N_noxref_12_c_1077_n ) capacitor c=0.00145873f //x=11.59 \
 //y=0 //x2=8.325 //y2=0.615
cc_143 ( N_GND_M4_noxref_d N_noxref_12_c_1077_n ) capacitor c=0.033812f \
 //x=7.65 //y=0.865 //x2=8.325 //y2=0.615
cc_144 ( N_GND_c_3_p N_noxref_12_c_1081_n ) capacitor c=2.91423e-19 //x=6.66 \
 //y=0 //x2=8.325 //y2=1.495
cc_145 ( N_GND_c_14_p N_noxref_12_c_1082_n ) capacitor c=0.0199727f //x=11.47 \
 //y=0 //x2=9.21 //y2=0.53
cc_146 ( N_GND_c_50_p N_noxref_12_c_1082_n ) capacitor c=0.0371035f //x=9.82 \
 //y=0 //x2=9.21 //y2=0.53
cc_147 ( N_GND_c_5_p N_noxref_12_c_1082_n ) capacitor c=0.00199095f //x=11.59 \
 //y=0 //x2=9.21 //y2=0.53
cc_148 ( N_GND_c_14_p N_noxref_12_c_1085_n ) capacitor c=0.00719615f //x=11.47 \
 //y=0 //x2=9.295 //y2=0.615
cc_149 ( N_GND_c_50_p N_noxref_12_c_1085_n ) capacitor c=0.0144264f //x=9.82 \
 //y=0 //x2=9.295 //y2=0.615
cc_150 ( N_GND_c_150_p N_noxref_12_c_1085_n ) capacitor c=9.77746e-19 \
 //x=10.62 //y=0.45 //x2=9.295 //y2=0.615
cc_151 ( N_GND_c_4_p N_noxref_12_c_1085_n ) capacitor c=0.0431718f //x=9.99 \
 //y=0 //x2=9.295 //y2=0.615
cc_152 ( N_GND_c_5_p N_noxref_12_c_1085_n ) capacitor c=0.00145015f //x=11.59 \
 //y=0 //x2=9.295 //y2=0.615
cc_153 ( N_GND_c_14_p N_noxref_12_M4_noxref_s ) capacitor c=0.00723598f \
 //x=11.47 //y=0 //x2=7.22 //y2=0.365
cc_154 ( N_GND_c_154_p N_noxref_12_M4_noxref_s ) capacitor c=0.00177507f \
 //x=5.965 //y=0.445 //x2=7.22 //y2=0.365
cc_155 ( N_GND_c_43_p N_noxref_12_M4_noxref_s ) capacitor c=0.0146208f \
 //x=7.755 //y=0 //x2=7.22 //y2=0.365
cc_156 ( N_GND_c_3_p N_noxref_12_M4_noxref_s ) capacitor c=0.058339f //x=6.66 \
 //y=0 //x2=7.22 //y2=0.365
cc_157 ( N_GND_c_4_p N_noxref_12_M4_noxref_s ) capacitor c=0.00198098f \
 //x=9.99 //y=0 //x2=7.22 //y2=0.365
cc_158 ( N_GND_c_5_p N_noxref_12_M4_noxref_s ) capacitor c=0.00145873f \
 //x=11.59 //y=0 //x2=7.22 //y2=0.365
cc_159 ( N_GND_M4_noxref_d N_noxref_12_M4_noxref_s ) capacitor c=0.0334197f \
 //x=7.65 //y=0.865 //x2=7.22 //y2=0.365
cc_160 ( N_GND_M6_noxref_s N_noxref_12_M4_noxref_s ) capacitor c=9.77746e-19 \
 //x=10.485 //y=0.37 //x2=7.22 //y2=0.365
cc_161 ( N_GND_c_4_p Y ) capacitor c=9.57726e-19 //x=9.99 //y=0 //x2=11.47 \
 //y2=2.22
cc_162 ( N_GND_c_14_p N_Y_c_1129_n ) capacitor c=0.0021242f //x=11.47 //y=0 \
 //x2=11.385 //y2=2.08
cc_163 ( N_GND_c_5_p N_Y_c_1129_n ) capacitor c=0.029556f //x=11.59 //y=0 \
 //x2=11.385 //y2=2.08
cc_164 ( N_GND_M6_noxref_s N_Y_c_1129_n ) capacitor c=0.00999304f //x=10.485 \
 //y=0.37 //x2=11.385 //y2=2.08
cc_165 ( N_GND_c_14_p N_Y_M6_noxref_d ) capacitor c=0.00194883f //x=11.47 \
 //y=0 //x2=10.915 //y2=0.91
cc_166 ( N_GND_c_62_p N_Y_M6_noxref_d ) capacitor c=0.0146043f //x=11.02 \
 //y=0.535 //x2=10.915 //y2=0.91
cc_167 ( N_GND_c_4_p N_Y_M6_noxref_d ) capacitor c=0.00924905f //x=9.99 //y=0 \
 //x2=10.915 //y2=0.91
cc_168 ( N_GND_c_5_p N_Y_M6_noxref_d ) capacitor c=0.00973758f //x=11.59 //y=0 \
 //x2=10.915 //y2=0.91
cc_169 ( N_GND_M6_noxref_s N_Y_M6_noxref_d ) capacitor c=0.076995f //x=10.485 \
 //y=0.37 //x2=10.915 //y2=0.91
cc_170 ( N_VDD_c_171_n N_noxref_3_c_311_n ) capacitor c=0.00382812f //x=3.33 \
 //y=7.4 //x2=4.325 //y2=2.59
cc_171 ( N_VDD_c_176_p N_noxref_3_c_334_n ) capacitor c=5.76712e-19 //x=1.585 \
 //y=7.4 //x2=2.025 //y2=5.2
cc_172 ( N_VDD_c_177_p N_noxref_3_c_334_n ) capacitor c=5.76712e-19 //x=2.465 \
 //y=7.4 //x2=2.025 //y2=5.2
cc_173 ( N_VDD_M8_noxref_d N_noxref_3_c_334_n ) capacitor c=0.0132775f \
 //x=1.525 //y=5.02 //x2=2.025 //y2=5.2
cc_174 ( N_VDD_c_170_n N_noxref_3_c_337_n ) capacitor c=0.00989999f //x=0.74 \
 //y=7.4 //x2=1.315 //y2=5.2
cc_175 ( N_VDD_M7_noxref_s N_noxref_3_c_337_n ) capacitor c=0.087833f \
 //x=0.655 //y=5.02 //x2=1.315 //y2=5.2
cc_176 ( N_VDD_c_177_p N_noxref_3_c_339_n ) capacitor c=8.71806e-19 //x=2.465 \
 //y=7.4 //x2=2.505 //y2=5.2
cc_177 ( N_VDD_M10_noxref_d N_noxref_3_c_339_n ) capacitor c=0.0167784f \
 //x=2.405 //y=5.02 //x2=2.505 //y2=5.2
cc_178 ( N_VDD_c_170_n N_noxref_3_c_317_n ) capacitor c=0.00159771f //x=0.74 \
 //y=7.4 //x2=2.59 //y2=2.59
cc_179 ( N_VDD_c_171_n N_noxref_3_c_317_n ) capacitor c=0.0462672f //x=3.33 \
 //y=7.4 //x2=2.59 //y2=2.59
cc_180 ( N_VDD_c_171_n N_noxref_3_c_319_n ) capacitor c=0.0103855f //x=3.33 \
 //y=7.4 //x2=4.44 //y2=2.08
cc_181 ( N_VDD_c_171_n N_noxref_3_c_344_n ) capacitor c=0.00860173f //x=3.33 \
 //y=7.4 //x2=4.285 //y2=4.705
cc_182 ( N_VDD_M11_noxref_d N_noxref_3_c_344_n ) capacitor c=2.85008e-19 \
 //x=4.415 //y=5.025 //x2=4.285 //y2=4.705
cc_183 ( N_VDD_c_188_p N_noxref_3_M11_noxref_g ) capacitor c=0.0067918f \
 //x=4.475 //y=7.4 //x2=4.34 //y2=6.025
cc_184 ( N_VDD_c_171_n N_noxref_3_M11_noxref_g ) capacitor c=0.0105272f \
 //x=3.33 //y=7.4 //x2=4.34 //y2=6.025
cc_185 ( N_VDD_M11_noxref_d N_noxref_3_M11_noxref_g ) capacitor c=0.0156786f \
 //x=4.415 //y=5.025 //x2=4.34 //y2=6.025
cc_186 ( N_VDD_c_191_p N_noxref_3_M12_noxref_g ) capacitor c=0.00678153f \
 //x=6.49 //y=7.4 //x2=4.78 //y2=6.025
cc_187 ( N_VDD_M11_noxref_d N_noxref_3_M12_noxref_g ) capacitor c=0.0183011f \
 //x=4.415 //y=5.025 //x2=4.78 //y2=6.025
cc_188 ( N_VDD_c_171_n N_noxref_3_c_351_n ) capacitor c=0.00890932f //x=3.33 \
 //y=7.4 //x2=4.285 //y2=4.705
cc_189 ( N_VDD_c_194_p N_noxref_3_M7_noxref_d ) capacitor c=0.00719513f \
 //x=11.47 //y=7.4 //x2=1.085 //y2=5.02
cc_190 ( N_VDD_c_176_p N_noxref_3_M7_noxref_d ) capacitor c=0.0138103f \
 //x=1.585 //y=7.4 //x2=1.085 //y2=5.02
cc_191 ( N_VDD_c_171_n N_noxref_3_M7_noxref_d ) capacitor c=6.94454e-19 \
 //x=3.33 //y=7.4 //x2=1.085 //y2=5.02
cc_192 ( N_VDD_c_174_n N_noxref_3_M7_noxref_d ) capacitor c=0.00135231f \
 //x=11.47 //y=7.4 //x2=1.085 //y2=5.02
cc_193 ( N_VDD_M8_noxref_d N_noxref_3_M7_noxref_d ) capacitor c=0.0664752f \
 //x=1.525 //y=5.02 //x2=1.085 //y2=5.02
cc_194 ( N_VDD_c_194_p N_noxref_3_M9_noxref_d ) capacitor c=0.00719513f \
 //x=11.47 //y=7.4 //x2=1.965 //y2=5.02
cc_195 ( N_VDD_c_177_p N_noxref_3_M9_noxref_d ) capacitor c=0.0138379f \
 //x=2.465 //y=7.4 //x2=1.965 //y2=5.02
cc_196 ( N_VDD_c_171_n N_noxref_3_M9_noxref_d ) capacitor c=0.0120541f \
 //x=3.33 //y=7.4 //x2=1.965 //y2=5.02
cc_197 ( N_VDD_c_174_n N_noxref_3_M9_noxref_d ) capacitor c=0.00135231f \
 //x=11.47 //y=7.4 //x2=1.965 //y2=5.02
cc_198 ( N_VDD_M7_noxref_s N_noxref_3_M9_noxref_d ) capacitor c=0.00111971f \
 //x=0.655 //y=5.02 //x2=1.965 //y2=5.02
cc_199 ( N_VDD_M8_noxref_d N_noxref_3_M9_noxref_d ) capacitor c=0.0664752f \
 //x=1.525 //y=5.02 //x2=1.965 //y2=5.02
cc_200 ( N_VDD_M10_noxref_d N_noxref_3_M9_noxref_d ) capacitor c=0.0664752f \
 //x=2.405 //y=5.02 //x2=1.965 //y2=5.02
cc_201 ( N_VDD_c_172_n N_noxref_4_c_455_n ) capacitor c=0.00382812f //x=6.66 \
 //y=7.4 //x2=7.655 //y2=2.59
cc_202 ( N_VDD_c_191_p N_noxref_4_c_490_n ) capacitor c=9.65117e-19 //x=6.49 \
 //y=7.4 //x2=5.835 //y2=5.21
cc_203 ( N_VDD_M15_noxref_s N_noxref_4_c_490_n ) capacitor c=2.47894e-19 \
 //x=7.315 //y=5.02 //x2=5.835 //y2=5.21
cc_204 ( N_VDD_c_171_n N_noxref_4_c_492_n ) capacitor c=8.9933e-19 //x=3.33 \
 //y=7.4 //x2=5.525 //y2=5.21
cc_205 ( N_VDD_c_171_n N_noxref_4_c_467_n ) capacitor c=0.00155409f //x=3.33 \
 //y=7.4 //x2=5.92 //y2=2.59
cc_206 ( N_VDD_c_172_n N_noxref_4_c_467_n ) capacitor c=0.0462858f //x=6.66 \
 //y=7.4 //x2=5.92 //y2=2.59
cc_207 ( N_VDD_c_212_p N_noxref_4_c_469_n ) capacitor c=3.97183e-19 //x=8.245 \
 //y=7.4 //x2=7.77 //y2=2.08
cc_208 ( N_VDD_c_172_n N_noxref_4_c_469_n ) capacitor c=0.0167437f //x=6.66 \
 //y=7.4 //x2=7.77 //y2=2.08
cc_209 ( N_VDD_c_212_p N_noxref_4_M15_noxref_g ) capacitor c=0.00726866f \
 //x=8.245 //y=7.4 //x2=7.67 //y2=6.02
cc_210 ( N_VDD_M15_noxref_s N_noxref_4_M15_noxref_g ) capacitor c=0.054195f \
 //x=7.315 //y=5.02 //x2=7.67 //y2=6.02
cc_211 ( N_VDD_c_212_p N_noxref_4_M16_noxref_g ) capacitor c=0.00672952f \
 //x=8.245 //y=7.4 //x2=8.11 //y2=6.02
cc_212 ( N_VDD_M16_noxref_d N_noxref_4_M16_noxref_g ) capacitor c=0.015318f \
 //x=8.185 //y=5.02 //x2=8.11 //y2=6.02
cc_213 ( N_VDD_c_172_n N_noxref_4_c_501_n ) capacitor c=0.0162221f //x=6.66 \
 //y=7.4 //x2=7.77 //y2=4.7
cc_214 ( N_VDD_c_172_n N_noxref_4_M13_noxref_d ) capacitor c=0.00966019f \
 //x=6.66 //y=7.4 //x2=5.295 //y2=5.025
cc_215 ( N_VDD_M11_noxref_d N_noxref_4_M13_noxref_d ) capacitor c=0.00561178f \
 //x=4.415 //y=5.025 //x2=5.295 //y2=5.025
cc_216 ( N_VDD_M15_noxref_s N_noxref_4_M13_noxref_d ) capacitor c=4.37644e-19 \
 //x=7.315 //y=5.02 //x2=5.295 //y2=5.025
cc_217 ( N_VDD_c_173_n N_noxref_5_c_597_n ) capacitor c=0.00382812f //x=9.99 \
 //y=7.4 //x2=10.615 //y2=2.59
cc_218 ( N_VDD_c_212_p N_noxref_5_c_625_n ) capacitor c=5.76712e-19 //x=8.245 \
 //y=7.4 //x2=8.685 //y2=5.2
cc_219 ( N_VDD_c_224_p N_noxref_5_c_625_n ) capacitor c=5.76712e-19 //x=9.125 \
 //y=7.4 //x2=8.685 //y2=5.2
cc_220 ( N_VDD_M16_noxref_d N_noxref_5_c_625_n ) capacitor c=0.0132775f \
 //x=8.185 //y=5.02 //x2=8.685 //y2=5.2
cc_221 ( N_VDD_c_172_n N_noxref_5_c_628_n ) capacitor c=0.00985474f //x=6.66 \
 //y=7.4 //x2=7.975 //y2=5.2
cc_222 ( N_VDD_M15_noxref_s N_noxref_5_c_628_n ) capacitor c=0.087833f \
 //x=7.315 //y=5.02 //x2=7.975 //y2=5.2
cc_223 ( N_VDD_c_224_p N_noxref_5_c_630_n ) capacitor c=8.71806e-19 //x=9.125 \
 //y=7.4 //x2=9.165 //y2=5.2
cc_224 ( N_VDD_M18_noxref_d N_noxref_5_c_630_n ) capacitor c=0.0167784f \
 //x=9.065 //y=5.02 //x2=9.165 //y2=5.2
cc_225 ( N_VDD_c_172_n N_noxref_5_c_603_n ) capacitor c=0.00151618f //x=6.66 \
 //y=7.4 //x2=9.25 //y2=2.59
cc_226 ( N_VDD_c_173_n N_noxref_5_c_603_n ) capacitor c=0.0461201f //x=9.99 \
 //y=7.4 //x2=9.25 //y2=2.59
cc_227 ( N_VDD_c_173_n N_noxref_5_c_605_n ) capacitor c=0.0272885f //x=9.99 \
 //y=7.4 //x2=10.73 //y2=2.085
cc_228 ( N_VDD_c_174_n N_noxref_5_c_605_n ) capacitor c=0.00144809f //x=11.47 \
 //y=7.4 //x2=10.73 //y2=2.085
cc_229 ( N_VDD_M19_noxref_s N_noxref_5_c_605_n ) capacitor c=0.00938034f \
 //x=10.53 //y=5.02 //x2=10.73 //y2=2.085
cc_230 ( N_VDD_c_235_p N_noxref_5_M19_noxref_g ) capacitor c=0.00748034f \
 //x=11.46 //y=7.4 //x2=10.885 //y2=6.02
cc_231 ( N_VDD_c_173_n N_noxref_5_M19_noxref_g ) capacitor c=0.00895557f \
 //x=9.99 //y=7.4 //x2=10.885 //y2=6.02
cc_232 ( N_VDD_M19_noxref_s N_noxref_5_M19_noxref_g ) capacitor c=0.0528676f \
 //x=10.53 //y=5.02 //x2=10.885 //y2=6.02
cc_233 ( N_VDD_c_235_p N_noxref_5_M20_noxref_g ) capacitor c=0.00697478f \
 //x=11.46 //y=7.4 //x2=11.325 //y2=6.02
cc_234 ( N_VDD_M20_noxref_d N_noxref_5_M20_noxref_g ) capacitor c=0.0528676f \
 //x=11.4 //y=5.02 //x2=11.325 //y2=6.02