// File: AOA4X1.spi.pex
// Created: Tue Oct 15 15:44:57 2024
// Program "Calibre xRC"
// Version "v2023.2_27.15"
// Nominal Temperature: 30C
// Circuit Temperature: 30C
// 
simulator lang=spectre
subckt PM_AOA4X1\%GND ( 1 23 27 30 35 46 51 55 63 67 70 79 87 98 103 107 120 \
 140 142 149 156 157 158 159 )
c169 ( 159 0 ) capacitor c=0.0597349f //x=10.485 //y=0.37
c170 ( 158 0 ) capacitor c=0.0207703f //x=7.65 //y=0.865
c171 ( 157 0 ) capacitor c=0.0698863f //x=3.89 //y=0.365
c172 ( 156 0 ) capacitor c=0.0208404f //x=0.99 //y=0.865
c173 ( 149 0 ) capacitor c=0.233789f //x=11.59 //y=0
c174 ( 142 0 ) capacitor c=0.101261f //x=9.99 //y=0
c175 ( 141 0 ) capacitor c=0.00440095f //x=7.84 //y=0
c176 ( 140 0 ) capacitor c=0.10428f //x=6.66 //y=0
c177 ( 120 0 ) capacitor c=0.107062f //x=3.33 //y=0
c178 ( 119 0 ) capacitor c=0.00440095f //x=1.18 //y=0
c179 ( 110 0 ) capacitor c=0.00583665f //x=11.59 //y=0.45
c180 ( 107 0 ) capacitor c=0.00542558f //x=11.505 //y=0.535
c181 ( 106 0 ) capacitor c=0.00479856f //x=11.105 //y=0.45
c182 ( 103 0 ) capacitor c=0.00690112f //x=11.02 //y=0.535
c183 ( 98 0 ) capacitor c=0.00588377f //x=10.62 //y=0.45
c184 ( 95 0 ) capacitor c=0.0190475f //x=10.535 //y=0
c185 ( 87 0 ) capacitor c=0.0751168f //x=9.82 //y=0
c186 ( 79 0 ) capacitor c=0.0426751f //x=7.755 //y=0
c187 ( 76 0 ) capacitor c=0.0659312f //x=6.05 //y=0
c188 ( 75 0 ) capacitor c=0.0227441f //x=6.49 //y=0
c189 ( 70 0 ) capacitor c=0.00609805f //x=5.965 //y=0.445
c190 ( 67 0 ) capacitor c=0.00508073f //x=5.88 //y=0.53
c191 ( 66 0 ) capacitor c=0.00468234f //x=5.48 //y=0.445
c192 ( 63 0 ) capacitor c=0.00556167f //x=5.395 //y=0.53
c193 ( 58 0 ) capacitor c=0.00468234f //x=4.995 //y=0.445
c194 ( 55 0 ) capacitor c=0.00556167f //x=4.91 //y=0.53
c195 ( 54 0 ) capacitor c=0.00468234f //x=4.51 //y=0.445
c196 ( 51 0 ) capacitor c=0.00692577f //x=4.425 //y=0.53
c197 ( 46 0 ) capacitor c=0.00609805f //x=4.025 //y=0.445
c198 ( 43 0 ) capacitor c=0.0227441f //x=3.94 //y=0
c199 ( 35 0 ) capacitor c=0.0751168f //x=3.16 //y=0
c200 ( 30 0 ) capacitor c=0.179504f //x=0.74 //y=0
c201 ( 27 0 ) capacitor c=0.0426751f //x=1.095 //y=0
c202 ( 23 0 ) capacitor c=0.458606f //x=11.47 //y=0
r203 (  148 149 ) resistor r=4.30252 //w=0.357 //l=0.12 //layer=li \
 //thickness=0.1 //x=11.47 //y=0 //x2=11.59 //y2=0
r204 (  146 148 ) resistor r=13.0868 //w=0.357 //l=0.365 //layer=li \
 //thickness=0.1 //x=11.105 //y=0 //x2=11.47 //y2=0
r205 (  145 146 ) resistor r=13.4454 //w=0.357 //l=0.375 //layer=li \
 //thickness=0.1 //x=10.73 //y=0 //x2=11.105 //y2=0
r206 (  143 145 ) resistor r=3.94398 //w=0.357 //l=0.11 //layer=li \
 //thickness=0.1 //x=10.62 //y=0 //x2=10.73 //y2=0
r207 (  128 129 ) resistor r=14.8796 //w=0.357 //l=0.415 //layer=li \
 //thickness=0.1 //x=5.55 //y=0 //x2=5.965 //y2=0
r208 (  126 128 ) resistor r=2.5098 //w=0.357 //l=0.07 //layer=li \
 //thickness=0.1 //x=5.48 //y=0 //x2=5.55 //y2=0
r209 (  125 126 ) resistor r=17.3894 //w=0.357 //l=0.485 //layer=li \
 //thickness=0.1 //x=4.995 //y=0 //x2=5.48 //y2=0
r210 (  124 125 ) resistor r=17.3894 //w=0.357 //l=0.485 //layer=li \
 //thickness=0.1 //x=4.51 //y=0 //x2=4.995 //y2=0
r211 (  123 124 ) resistor r=2.5098 //w=0.357 //l=0.07 //layer=li \
 //thickness=0.1 //x=4.44 //y=0 //x2=4.51 //y2=0
r212 (  121 123 ) resistor r=14.8796 //w=0.357 //l=0.415 //layer=li \
 //thickness=0.1 //x=4.025 //y=0 //x2=4.44 //y2=0
r213 (  111 159 ) resistor r=5.4201 //w=0.17 //l=0.085 //layer=li \
 //thickness=0.1 //x=11.59 //y=0.62 //x2=11.59 //y2=0.535
r214 (  111 159 ) resistor r=41.4118 //w=0.187 //l=0.605 //layer=li \
 //thickness=0.1 //x=11.59 //y=0.62 //x2=11.59 //y2=1.225
r215 (  110 159 ) resistor r=5.4201 //w=0.17 //l=0.085 //layer=li \
 //thickness=0.1 //x=11.59 //y=0.45 //x2=11.59 //y2=0.535
r216 (  109 149 ) resistor r=5.03728 //w=0.34 //l=0.17 //layer=li \
 //thickness=0.1 //x=11.59 //y=0.17 //x2=11.59 //y2=0
r217 (  109 110 ) resistor r=19.1658 //w=0.187 //l=0.28 //layer=li \
 //thickness=0.1 //x=11.59 //y=0.17 //x2=11.59 //y2=0.45
r218 (  108 159 ) resistor r=5.4201 //w=0.17 //l=0.085 //layer=li \
 //thickness=0.1 //x=11.19 //y=0.535 //x2=11.105 //y2=0.535
r219 (  107 159 ) resistor r=1.40859 //w=0.34 //l=0.085 //layer=li \
 //thickness=0.1 //x=11.505 //y=0.535 //x2=11.59 //y2=0.535
r220 (  107 108 ) resistor r=21.5615 //w=0.187 //l=0.315 //layer=li \
 //thickness=0.1 //x=11.505 //y=0.535 //x2=11.19 //y2=0.535
r221 (  106 159 ) resistor r=1.40859 //w=0.34 //l=0.085 //layer=li \
 //thickness=0.1 //x=11.105 //y=0.45 //x2=11.105 //y2=0.535
r222 (  105 146 ) resistor r=5.03728 //w=0.34 //l=0.17 //layer=li \
 //thickness=0.1 //x=11.105 //y=0.17 //x2=11.105 //y2=0
r223 (  105 106 ) resistor r=19.1658 //w=0.187 //l=0.28 //layer=li \
 //thickness=0.1 //x=11.105 //y=0.17 //x2=11.105 //y2=0.45
r224 (  104 159 ) resistor r=1.40859 //w=0.34 //l=0.085 //layer=li \
 //thickness=0.1 //x=10.705 //y=0.535 //x2=10.62 //y2=0.535
r225 (  103 159 ) resistor r=5.4201 //w=0.17 //l=0.085 //layer=li \
 //thickness=0.1 //x=11.02 //y=0.535 //x2=11.105 //y2=0.535
r226 (  103 104 ) resistor r=21.5615 //w=0.187 //l=0.315 //layer=li \
 //thickness=0.1 //x=11.02 //y=0.535 //x2=10.705 //y2=0.535
r227 (  99 159 ) resistor r=5.4201 //w=0.17 //l=0.085 //layer=li \
 //thickness=0.1 //x=10.62 //y=0.62 //x2=10.62 //y2=0.535
r228 (  99 159 ) resistor r=41.4118 //w=0.187 //l=0.605 //layer=li \
 //thickness=0.1 //x=10.62 //y=0.62 //x2=10.62 //y2=1.225
r229 (  98 159 ) resistor r=5.4201 //w=0.17 //l=0.085 //layer=li \
 //thickness=0.1 //x=10.62 //y=0.45 //x2=10.62 //y2=0.535
r230 (  97 143 ) resistor r=5.03728 //w=0.34 //l=0.17 //layer=li \
 //thickness=0.1 //x=10.62 //y=0.17 //x2=10.62 //y2=0
r231 (  97 98 ) resistor r=19.1658 //w=0.187 //l=0.28 //layer=li \
 //thickness=0.1 //x=10.62 //y=0.17 //x2=10.62 //y2=0.45
r232 (  96 142 ) resistor r=5.4201 //w=0.34 //l=0.17 //layer=li \
 //thickness=0.1 //x=10.16 //y=0 //x2=9.99 //y2=0
r233 (  95 143 ) resistor r=3.04762 //w=0.357 //l=0.085 //layer=li \
 //thickness=0.1 //x=10.535 //y=0 //x2=10.62 //y2=0
r234 (  95 96 ) resistor r=13.4454 //w=0.357 //l=0.375 //layer=li \
 //thickness=0.1 //x=10.535 //y=0 //x2=10.16 //y2=0
r235 (  90 92 ) resistor r=39.7983 //w=0.357 //l=1.11 //layer=li \
 //thickness=0.1 //x=8.14 //y=0 //x2=9.25 //y2=0
r236 (  88 141 ) resistor r=2.94794 //w=0.34 //l=0.085 //layer=li \
 //thickness=0.1 //x=7.925 //y=0 //x2=7.84 //y2=0
r237 (  88 90 ) resistor r=7.70868 //w=0.357 //l=0.215 //layer=li \
 //thickness=0.1 //x=7.925 //y=0 //x2=8.14 //y2=0
r238 (  87 142 ) resistor r=5.4201 //w=0.34 //l=0.17 //layer=li \
 //thickness=0.1 //x=9.82 //y=0 //x2=9.99 //y2=0
r239 (  87 92 ) resistor r=20.437 //w=0.357 //l=0.57 //layer=li \
 //thickness=0.1 //x=9.82 //y=0 //x2=9.25 //y2=0
r240 (  83 141 ) resistor r=4.11603 //w=0.68 //l=0.17 //layer=li \
 //thickness=0.1 //x=7.84 //y=0.17 //x2=7.84 //y2=0
r241 (  83 158 ) resistor r=53.7326 //w=0.187 //l=0.785 //layer=li \
 //thickness=0.1 //x=7.84 //y=0.17 //x2=7.84 //y2=0.955
r242 (  80 140 ) resistor r=5.4201 //w=0.34 //l=0.17 //layer=li \
 //thickness=0.1 //x=6.83 //y=0 //x2=6.66 //y2=0
r243 (  80 82 ) resistor r=7.17087 //w=0.357 //l=0.2 //layer=li \
 //thickness=0.1 //x=6.83 //y=0 //x2=7.03 //y2=0
r244 (  79 141 ) resistor r=2.94794 //w=0.34 //l=0.085 //layer=li \
 //thickness=0.1 //x=7.755 //y=0 //x2=7.84 //y2=0
r245 (  79 82 ) resistor r=25.9944 //w=0.357 //l=0.725 //layer=li \
 //thickness=0.1 //x=7.755 //y=0 //x2=7.03 //y2=0
r246 (  76 129 ) resistor r=3.04762 //w=0.357 //l=0.085 //layer=li \
 //thickness=0.1 //x=6.05 //y=0 //x2=5.965 //y2=0
r247 (  75 140 ) resistor r=5.4201 //w=0.34 //l=0.17 //layer=li \
 //thickness=0.1 //x=6.49 //y=0 //x2=6.66 //y2=0
r248 (  75 76 ) resistor r=15.7759 //w=0.357 //l=0.44 //layer=li \
 //thickness=0.1 //x=6.49 //y=0 //x2=6.05 //y2=0
r249 (  71 157 ) resistor r=5.4201 //w=0.17 //l=0.085 //layer=li \
 //thickness=0.1 //x=5.965 //y=0.615 //x2=5.965 //y2=0.53
r250 (  71 157 ) resistor r=18.139 //w=0.187 //l=0.265 //layer=li \
 //thickness=0.1 //x=5.965 //y=0.615 //x2=5.965 //y2=0.88
r251 (  70 157 ) resistor r=5.4201 //w=0.17 //l=0.085 //layer=li \
 //thickness=0.1 //x=5.965 //y=0.445 //x2=5.965 //y2=0.53
r252 (  69 129 ) resistor r=5.03728 //w=0.34 //l=0.17 //layer=li \
 //thickness=0.1 //x=5.965 //y=0.17 //x2=5.965 //y2=0
r253 (  69 70 ) resistor r=18.8235 //w=0.187 //l=0.275 //layer=li \
 //thickness=0.1 //x=5.965 //y=0.17 //x2=5.965 //y2=0.445
r254 (  68 157 ) resistor r=5.4201 //w=0.17 //l=0.085 //layer=li \
 //thickness=0.1 //x=5.565 //y=0.53 //x2=5.48 //y2=0.53
r255 (  67 157 ) resistor r=1.40859 //w=0.34 //l=0.085 //layer=li \
 //thickness=0.1 //x=5.88 //y=0.53 //x2=5.965 //y2=0.53
r256 (  67 68 ) resistor r=21.5615 //w=0.187 //l=0.315 //layer=li \
 //thickness=0.1 //x=5.88 //y=0.53 //x2=5.565 //y2=0.53
r257 (  66 157 ) resistor r=1.40859 //w=0.34 //l=0.085 //layer=li \
 //thickness=0.1 //x=5.48 //y=0.445 //x2=5.48 //y2=0.53
r258 (  65 126 ) resistor r=5.03728 //w=0.34 //l=0.17 //layer=li \
 //thickness=0.1 //x=5.48 //y=0.17 //x2=5.48 //y2=0
r259 (  65 66 ) resistor r=18.8235 //w=0.187 //l=0.275 //layer=li \
 //thickness=0.1 //x=5.48 //y=0.17 //x2=5.48 //y2=0.445
r260 (  64 157 ) resistor r=6.4 //w=0.17 //l=0.085 //layer=li //thickness=0.1 \
 //x=5.08 //y=0.53 //x2=4.995 //y2=0.53
r261 (  63 157 ) resistor r=5.4201 //w=0.17 //l=0.085 //layer=li \
 //thickness=0.1 //x=5.395 //y=0.53 //x2=5.48 //y2=0.53
r262 (  63 64 ) resistor r=21.5615 //w=0.187 //l=0.315 //layer=li \
 //thickness=0.1 //x=5.395 //y=0.53 //x2=5.08 //y2=0.53
r263 (  59 157 ) resistor r=6.4 //w=0.17 //l=0.085 //layer=li //thickness=0.1 \
 //x=4.995 //y=0.615 //x2=4.995 //y2=0.53
r264 (  59 157 ) resistor r=18.139 //w=0.187 //l=0.265 //layer=li \
 //thickness=0.1 //x=4.995 //y=0.615 //x2=4.995 //y2=0.88
r265 (  58 157 ) resistor r=6.4 //w=0.17 //l=0.085 //layer=li //thickness=0.1 \
 //x=4.995 //y=0.445 //x2=4.995 //y2=0.53
r266 (  57 125 ) resistor r=5.03728 //w=0.34 //l=0.17 //layer=li \
 //thickness=0.1 //x=4.995 //y=0.17 //x2=4.995 //y2=0
r267 (  57 58 ) resistor r=18.8235 //w=0.187 //l=0.275 //layer=li \
 //thickness=0.1 //x=4.995 //y=0.17 //x2=4.995 //y2=0.445
r268 (  56 157 ) resistor r=5.4201 //w=0.17 //l=0.085 //layer=li \
 //thickness=0.1 //x=4.595 //y=0.53 //x2=4.51 //y2=0.53
r269 (  55 157 ) resistor r=6.4 //w=0.17 //l=0.085 //layer=li //thickness=0.1 \
 //x=4.91 //y=0.53 //x2=4.995 //y2=0.53
r270 (  55 56 ) resistor r=21.5615 //w=0.187 //l=0.315 //layer=li \
 //thickness=0.1 //x=4.91 //y=0.53 //x2=4.595 //y2=0.53
r271 (  54 157 ) resistor r=1.40859 //w=0.34 //l=0.085 //layer=li \
 //thickness=0.1 //x=4.51 //y=0.445 //x2=4.51 //y2=0.53
r272 (  53 124 ) resistor r=5.03728 //w=0.34 //l=0.17 //layer=li \
 //thickness=0.1 //x=4.51 //y=0.17 //x2=4.51 //y2=0
r273 (  53 54 ) resistor r=18.8235 //w=0.187 //l=0.275 //layer=li \
 //thickness=0.1 //x=4.51 //y=0.17 //x2=4.51 //y2=0.445
r274 (  52 157 ) resistor r=1.40859 //w=0.34 //l=0.085 //layer=li \
 //thickness=0.1 //x=4.11 //y=0.53 //x2=4.025 //y2=0.53
r275 (  51 157 ) resistor r=5.4201 //w=0.17 //l=0.085 //layer=li \
 //thickness=0.1 //x=4.425 //y=0.53 //x2=4.51 //y2=0.53
r276 (  51 52 ) resistor r=21.5615 //w=0.187 //l=0.315 //layer=li \
 //thickness=0.1 //x=4.425 //y=0.53 //x2=4.11 //y2=0.53
r277 (  47 157 ) resistor r=5.4201 //w=0.17 //l=0.085 //layer=li \
 //thickness=0.1 //x=4.025 //y=0.615 //x2=4.025 //y2=0.53
r278 (  47 157 ) resistor r=41.4118 //w=0.187 //l=0.605 //layer=li \
 //thickness=0.1 //x=4.025 //y=0.615 //x2=4.025 //y2=1.22
r279 (  46 157 ) resistor r=5.4201 //w=0.17 //l=0.085 //layer=li \
 //thickness=0.1 //x=4.025 //y=0.445 //x2=4.025 //y2=0.53
r280 (  45 121 ) resistor r=5.03728 //w=0.34 //l=0.17 //layer=li \
 //thickness=0.1 //x=4.025 //y=0.17 //x2=4.025 //y2=0
r281 (  45 46 ) resistor r=18.8235 //w=0.187 //l=0.275 //layer=li \
 //thickness=0.1 //x=4.025 //y=0.17 //x2=4.025 //y2=0.445
r282 (  44 120 ) resistor r=5.4201 //w=0.34 //l=0.17 //layer=li \
 //thickness=0.1 //x=3.5 //y=0 //x2=3.33 //y2=0
r283 (  43 121 ) resistor r=3.04762 //w=0.357 //l=0.085 //layer=li \
 //thickness=0.1 //x=3.94 //y=0 //x2=4.025 //y2=0
r284 (  43 44 ) resistor r=15.7759 //w=0.357 //l=0.44 //layer=li \
 //thickness=0.1 //x=3.94 //y=0 //x2=3.5 //y2=0
r285 (  38 40 ) resistor r=39.7983 //w=0.357 //l=1.11 //layer=li \
 //thickness=0.1 //x=1.85 //y=0 //x2=2.96 //y2=0
r286 (  36 119 ) resistor r=2.94794 //w=0.34 //l=0.085 //layer=li \
 //thickness=0.1 //x=1.265 //y=0 //x2=1.18 //y2=0
r287 (  36 38 ) resistor r=20.9748 //w=0.357 //l=0.585 //layer=li \
 //thickness=0.1 //x=1.265 //y=0 //x2=1.85 //y2=0
r288 (  35 120 ) resistor r=5.4201 //w=0.34 //l=0.17 //layer=li \
 //thickness=0.1 //x=3.16 //y=0 //x2=3.33 //y2=0
r289 (  35 40 ) resistor r=7.17087 //w=0.357 //l=0.2 //layer=li \
 //thickness=0.1 //x=3.16 //y=0 //x2=2.96 //y2=0
r290 (  31 119 ) resistor r=4.11603 //w=0.68 //l=0.17 //layer=li \
 //thickness=0.1 //x=1.18 //y=0.17 //x2=1.18 //y2=0
r291 (  31 156 ) resistor r=53.7326 //w=0.187 //l=0.785 //layer=li \
 //thickness=0.1 //x=1.18 //y=0.17 //x2=1.18 //y2=0.955
r292 (  27 119 ) resistor r=2.94794 //w=0.34 //l=0.085 //layer=li \
 //thickness=0.1 //x=1.095 //y=0 //x2=1.18 //y2=0
r293 (  27 30 ) resistor r=12.7283 //w=0.357 //l=0.355 //layer=li \
 //thickness=0.1 //x=1.095 //y=0 //x2=0.74 //y2=0
r294 (  23 148 ) resistor r=4.65 //w=0.17 //l=0.34 //layer=mcon //count=2 \
 //x=11.47 //y=0 //x2=11.47 //y2=0
r295 (  21 145 ) resistor r=3.1 //w=0.17 //l=0.51 //layer=mcon //count=3 \
 //x=10.73 //y=0 //x2=10.73 //y2=0
r296 (  21 23 ) resistor r=0.307309 //w=0.301 //l=0.74 //layer=m1 \
 //thickness=0.36 //x=10.73 //y=0 //x2=11.47 //y2=0
r297 (  19 92 ) resistor r=3.1 //w=0.17 //l=0.51 //layer=mcon //count=3 \
 //x=9.25 //y=0 //x2=9.25 //y2=0
r298 (  19 21 ) resistor r=0.614618 //w=0.301 //l=1.48 //layer=m1 \
 //thickness=0.36 //x=9.25 //y=0 //x2=10.73 //y2=0
r299 (  17 90 ) resistor r=3.1 //w=0.17 //l=0.51 //layer=mcon //count=3 \
 //x=8.14 //y=0 //x2=8.14 //y2=0
r300 (  17 19 ) resistor r=0.460963 //w=0.301 //l=1.11 //layer=m1 \
 //thickness=0.36 //x=8.14 //y=0 //x2=9.25 //y2=0
r301 (  15 82 ) resistor r=3.1 //w=0.17 //l=0.51 //layer=mcon //count=3 \
 //x=7.03 //y=0 //x2=7.03 //y2=0
r302 (  15 17 ) resistor r=0.460963 //w=0.301 //l=1.11 //layer=m1 \
 //thickness=0.36 //x=7.03 //y=0 //x2=8.14 //y2=0
r303 (  12 128 ) resistor r=3.1 //w=0.17 //l=0.51 //layer=mcon //count=3 \
 //x=5.55 //y=0 //x2=5.55 //y2=0
r304 (  10 123 ) resistor r=3.1 //w=0.17 //l=0.51 //layer=mcon //count=3 \
 //x=4.44 //y=0 //x2=4.44 //y2=0
r305 (  10 12 ) resistor r=0.460963 //w=0.301 //l=1.11 //layer=m1 \
 //thickness=0.36 //x=4.44 //y=0 //x2=5.55 //y2=0
r306 (  8 40 ) resistor r=3.1 //w=0.17 //l=0.51 //layer=mcon //count=3 \
 //x=2.96 //y=0 //x2=2.96 //y2=0
r307 (  8 10 ) resistor r=0.614618 //w=0.301 //l=1.48 //layer=m1 \
 //thickness=0.36 //x=2.96 //y=0 //x2=4.44 //y2=0
r308 (  6 38 ) resistor r=3.1 //w=0.17 //l=0.51 //layer=mcon //count=3 \
 //x=1.85 //y=0 //x2=1.85 //y2=0
r309 (  6 8 ) resistor r=0.460963 //w=0.301 //l=1.11 //layer=m1 \
 //thickness=0.36 //x=1.85 //y=0 //x2=2.96 //y2=0
r310 (  3 30 ) resistor r=3.1 //w=0.17 //l=0.51 //layer=mcon //count=3 \
 //x=0.74 //y=0 //x2=0.74 //y2=0
r311 (  3 6 ) resistor r=0.460963 //w=0.301 //l=1.11 //layer=m1 \
 //thickness=0.36 //x=0.74 //y=0 //x2=1.85 //y2=0
r312 (  1 15 ) resistor r=0.384136 //w=0.301 //l=0.925 //layer=m1 \
 //thickness=0.36 //x=6.105 //y=0 //x2=7.03 //y2=0
r313 (  1 12 ) resistor r=0.230482 //w=0.301 //l=0.555 //layer=m1 \
 //thickness=0.36 //x=6.105 //y=0 //x2=5.55 //y2=0
ends PM_AOA4X1\%GND

subckt PM_AOA4X1\%VDD ( 1 23 35 43 59 69 85 95 115 128 131 133 138 142 143 144 \
 145 146 147 148 149 150 151 )
c141 ( 151 0 ) capacitor c=0.0451925f //x=11.4 //y=5.02
c142 ( 150 0 ) capacitor c=0.0429269f //x=10.53 //y=5.02
c143 ( 149 0 ) capacitor c=0.0383753f //x=9.065 //y=5.02
c144 ( 148 0 ) capacitor c=0.0243052f //x=8.185 //y=5.02
c145 ( 147 0 ) capacitor c=0.053196f //x=7.315 //y=5.02
c146 ( 146 0 ) capacitor c=0.0256796f //x=4.415 //y=5.025
c147 ( 145 0 ) capacitor c=0.0383753f //x=2.405 //y=5.02
c148 ( 144 0 ) capacitor c=0.0243052f //x=1.525 //y=5.02
c149 ( 143 0 ) capacitor c=0.053196f //x=0.655 //y=5.02
c150 ( 142 0 ) capacitor c=0.234796f //x=11.47 //y=7.4
c151 ( 140 0 ) capacitor c=0.00591168f //x=10.73 //y=7.4
c152 ( 138 0 ) capacitor c=0.111641f //x=9.99 //y=7.4
c153 ( 137 0 ) capacitor c=0.00591168f //x=9.25 //y=7.4
c154 ( 135 0 ) capacitor c=0.00591168f //x=8.33 //y=7.4
c155 ( 134 0 ) capacitor c=0.00591168f //x=7.45 //y=7.4
c156 ( 133 0 ) capacitor c=0.119284f //x=6.66 //y=7.4
c157 ( 132 0 ) capacitor c=0.00591168f //x=4.56 //y=7.4
c158 ( 131 0 ) capacitor c=0.116004f //x=3.33 //y=7.4
c159 ( 130 0 ) capacitor c=0.00591168f //x=2.55 //y=7.4
c160 ( 129 0 ) capacitor c=0.00591168f //x=1.67 //y=7.4
c161 ( 128 0 ) capacitor c=0.24846f //x=0.74 //y=7.4
c162 ( 115 0 ) capacitor c=0.028745f //x=11.46 //y=7.4
c163 ( 107 0 ) capacitor c=0.0216067f //x=10.58 //y=7.4
c164 ( 103 0 ) capacitor c=0.0275781f //x=9.82 //y=7.4
c165 ( 95 0 ) capacitor c=0.0285035f //x=9.125 //y=7.4
c166 ( 85 0 ) capacitor c=0.0286367f //x=8.245 //y=7.4
c167 ( 75 0 ) capacitor c=0.0281468f //x=7.365 //y=7.4
c168 ( 69 0 ) capacitor c=0.0778183f //x=6.49 //y=7.4
c169 ( 59 0 ) capacitor c=0.0465804f //x=4.475 //y=7.4
c170 ( 53 0 ) capacitor c=0.0275781f //x=3.16 //y=7.4
c171 ( 43 0 ) capacitor c=0.0285035f //x=2.465 //y=7.4
c172 ( 35 0 ) capacitor c=0.0286367f //x=1.585 //y=7.4
c173 ( 23 0 ) capacitor c=0.476129f //x=11.47 //y=7.4
r174 (  117 142 ) resistor r=4.11603 //w=0.68 //l=0.17 //layer=li \
 //thickness=0.1 //x=11.545 //y=7.23 //x2=11.545 //y2=7.4
r175 (  117 151 ) resistor r=56.4706 //w=0.187 //l=0.825 //layer=li \
 //thickness=0.1 //x=11.545 //y=7.23 //x2=11.545 //y2=6.405
r176 (  116 140 ) resistor r=2.94794 //w=0.34 //l=0.085 //layer=li \
 //thickness=0.1 //x=10.75 //y=7.4 //x2=10.665 //y2=7.4
r177 (  115 142 ) resistor r=2.94794 //w=0.34 //l=0.085 //layer=li \
 //thickness=0.1 //x=11.46 //y=7.4 //x2=11.545 //y2=7.4
r178 (  115 116 ) resistor r=25.4566 //w=0.357 //l=0.71 //layer=li \
 //thickness=0.1 //x=11.46 //y=7.4 //x2=10.75 //y2=7.4
r179 (  109 140 ) resistor r=4.11603 //w=0.68 //l=0.17 //layer=li \
 //thickness=0.1 //x=10.665 //y=7.23 //x2=10.665 //y2=7.4
r180 (  109 150 ) resistor r=56.4706 //w=0.187 //l=0.825 //layer=li \
 //thickness=0.1 //x=10.665 //y=7.23 //x2=10.665 //y2=6.405
r181 (  108 138 ) resistor r=5.4201 //w=0.34 //l=0.17 //layer=li \
 //thickness=0.1 //x=10.16 //y=7.4 //x2=9.99 //y2=7.4
r182 (  107 140 ) resistor r=2.94794 //w=0.34 //l=0.085 //layer=li \
 //thickness=0.1 //x=10.58 //y=7.4 //x2=10.665 //y2=7.4
r183 (  107 108 ) resistor r=15.0588 //w=0.357 //l=0.42 //layer=li \
 //thickness=0.1 //x=10.58 //y=7.4 //x2=10.16 //y2=7.4
r184 (  104 137 ) resistor r=2.94794 //w=0.34 //l=0.085 //layer=li \
 //thickness=0.1 //x=9.295 //y=7.4 //x2=9.21 //y2=7.4
r185 (  103 138 ) resistor r=5.4201 //w=0.34 //l=0.17 //layer=li \
 //thickness=0.1 //x=9.82 //y=7.4 //x2=9.99 //y2=7.4
r186 (  103 104 ) resistor r=18.8235 //w=0.357 //l=0.525 //layer=li \
 //thickness=0.1 //x=9.82 //y=7.4 //x2=9.295 //y2=7.4
r187 (  97 137 ) resistor r=4.11603 //w=0.68 //l=0.17 //layer=li \
 //thickness=0.1 //x=9.21 //y=7.23 //x2=9.21 //y2=7.4
r188 (  97 149 ) resistor r=33.1979 //w=0.187 //l=0.485 //layer=li \
 //thickness=0.1 //x=9.21 //y=7.23 //x2=9.21 //y2=6.745
r189 (  96 135 ) resistor r=2.94794 //w=0.34 //l=0.085 //layer=li \
 //thickness=0.1 //x=8.415 //y=7.4 //x2=8.33 //y2=7.4
r190 (  95 137 ) resistor r=2.94794 //w=0.34 //l=0.085 //layer=li \
 //thickness=0.1 //x=9.125 //y=7.4 //x2=9.21 //y2=7.4
r191 (  95 96 ) resistor r=25.4566 //w=0.357 //l=0.71 //layer=li \
 //thickness=0.1 //x=9.125 //y=7.4 //x2=8.415 //y2=7.4
r192 (  89 135 ) resistor r=4.11603 //w=0.68 //l=0.17 //layer=li \
 //thickness=0.1 //x=8.33 //y=7.23 //x2=8.33 //y2=7.4
r193 (  89 148 ) resistor r=33.1979 //w=0.187 //l=0.485 //layer=li \
 //thickness=0.1 //x=8.33 //y=7.23 //x2=8.33 //y2=6.745
r194 (  86 134 ) resistor r=2.94794 //w=0.34 //l=0.085 //layer=li \
 //thickness=0.1 //x=7.535 //y=7.4 //x2=7.45 //y2=7.4
r195 (  86 88 ) resistor r=21.6919 //w=0.357 //l=0.605 //layer=li \
 //thickness=0.1 //x=7.535 //y=7.4 //x2=8.14 //y2=7.4
r196 (  85 135 ) resistor r=2.94794 //w=0.34 //l=0.085 //layer=li \
 //thickness=0.1 //x=8.245 //y=7.4 //x2=8.33 //y2=7.4
r197 (  85 88 ) resistor r=3.76471 //w=0.357 //l=0.105 //layer=li \
 //thickness=0.1 //x=8.245 //y=7.4 //x2=8.14 //y2=7.4
r198 (  79 134 ) resistor r=4.11603 //w=0.68 //l=0.17 //layer=li \
 //thickness=0.1 //x=7.45 //y=7.23 //x2=7.45 //y2=7.4
r199 (  79 147 ) resistor r=56.4706 //w=0.187 //l=0.825 //layer=li \
 //thickness=0.1 //x=7.45 //y=7.23 //x2=7.45 //y2=6.405
r200 (  76 133 ) resistor r=5.4201 //w=0.34 //l=0.17 //layer=li \
 //thickness=0.1 //x=6.83 //y=7.4 //x2=6.66 //y2=7.4
r201 (  76 78 ) resistor r=7.17087 //w=0.357 //l=0.2 //layer=li \
 //thickness=0.1 //x=6.83 //y=7.4 //x2=7.03 //y2=7.4
r202 (  75 134 ) resistor r=2.94794 //w=0.34 //l=0.085 //layer=li \
 //thickness=0.1 //x=7.365 //y=7.4 //x2=7.45 //y2=7.4
r203 (  75 78 ) resistor r=12.0112 //w=0.357 //l=0.335 //layer=li \
 //thickness=0.1 //x=7.365 //y=7.4 //x2=7.03 //y2=7.4
r204 (  70 132 ) resistor r=2.94794 //w=0.34 //l=0.085 //layer=li \
 //thickness=0.1 //x=4.645 //y=7.4 //x2=4.56 //y2=7.4
r205 (  70 72 ) resistor r=32.4482 //w=0.357 //l=0.905 //layer=li \
 //thickness=0.1 //x=4.645 //y=7.4 //x2=5.55 //y2=7.4
r206 (  69 133 ) resistor r=5.4201 //w=0.34 //l=0.17 //layer=li \
 //thickness=0.1 //x=6.49 //y=7.4 //x2=6.66 //y2=7.4
r207 (  69 72 ) resistor r=33.7031 //w=0.357 //l=0.94 //layer=li \
 //thickness=0.1 //x=6.49 //y=7.4 //x2=5.55 //y2=7.4
r208 (  63 132 ) resistor r=4.11603 //w=0.68 //l=0.17 //layer=li \
 //thickness=0.1 //x=4.56 //y=7.23 //x2=4.56 //y2=7.4
r209 (  63 146 ) resistor r=33.5401 //w=0.187 //l=0.49 //layer=li \
 //thickness=0.1 //x=4.56 //y=7.23 //x2=4.56 //y2=6.74
r210 (  60 131 ) resistor r=5.4201 //w=0.34 //l=0.17 //layer=li \
 //thickness=0.1 //x=3.5 //y=7.4 //x2=3.33 //y2=7.4
r211 (  60 62 ) resistor r=33.7031 //w=0.357 //l=0.94 //layer=li \
 //thickness=0.1 //x=3.5 //y=7.4 //x2=4.44 //y2=7.4
r212 (  59 132 ) resistor r=2.94794 //w=0.34 //l=0.085 //layer=li \
 //thickness=0.1 //x=4.475 //y=7.4 //x2=4.56 //y2=7.4
r213 (  59 62 ) resistor r=1.2549 //w=0.357 //l=0.035 //layer=li \
 //thickness=0.1 //x=4.475 //y=7.4 //x2=4.44 //y2=7.4
r214 (  54 130 ) resistor r=2.94794 //w=0.34 //l=0.085 //layer=li \
 //thickness=0.1 //x=2.635 //y=7.4 //x2=2.55 //y2=7.4
r215 (  54 56 ) resistor r=11.6527 //w=0.357 //l=0.325 //layer=li \
 //thickness=0.1 //x=2.635 //y=7.4 //x2=2.96 //y2=7.4
r216 (  53 131 ) resistor r=5.4201 //w=0.34 //l=0.17 //layer=li \
 //thickness=0.1 //x=3.16 //y=7.4 //x2=3.33 //y2=7.4
r217 (  53 56 ) resistor r=7.17087 //w=0.357 //l=0.2 //layer=li \
 //thickness=0.1 //x=3.16 //y=7.4 //x2=2.96 //y2=7.4
r218 (  47 130 ) resistor r=4.11603 //w=0.68 //l=0.17 //layer=li \
 //thickness=0.1 //x=2.55 //y=7.23 //x2=2.55 //y2=7.4
r219 (  47 145 ) resistor r=33.1979 //w=0.187 //l=0.485 //layer=li \
 //thickness=0.1 //x=2.55 //y=7.23 //x2=2.55 //y2=6.745
r220 (  44 129 ) resistor r=2.94794 //w=0.34 //l=0.085 //layer=li \
 //thickness=0.1 //x=1.755 //y=7.4 //x2=1.67 //y2=7.4
r221 (  44 46 ) resistor r=3.40616 //w=0.357 //l=0.095 //layer=li \
 //thickness=0.1 //x=1.755 //y=7.4 //x2=1.85 //y2=7.4
r222 (  43 130 ) resistor r=2.94794 //w=0.34 //l=0.085 //layer=li \
 //thickness=0.1 //x=2.465 //y=7.4 //x2=2.55 //y2=7.4
r223 (  43 46 ) resistor r=22.0504 //w=0.357 //l=0.615 //layer=li \
 //thickness=0.1 //x=2.465 //y=7.4 //x2=1.85 //y2=7.4
r224 (  37 129 ) resistor r=4.11603 //w=0.68 //l=0.17 //layer=li \
 //thickness=0.1 //x=1.67 //y=7.23 //x2=1.67 //y2=7.4
r225 (  37 144 ) resistor r=33.1979 //w=0.187 //l=0.485 //layer=li \
 //thickness=0.1 //x=1.67 //y=7.23 //x2=1.67 //y2=6.745
r226 (  36 128 ) resistor r=2.94794 //w=0.34 //l=0.085 //layer=li \
 //thickness=0.1 //x=0.875 //y=7.4 //x2=0.79 //y2=7.4
r227 (  35 129 ) resistor r=2.94794 //w=0.34 //l=0.085 //layer=li \
 //thickness=0.1 //x=1.585 //y=7.4 //x2=1.67 //y2=7.4
r228 (  35 36 ) resistor r=25.4566 //w=0.357 //l=0.71 //layer=li \
 //thickness=0.1 //x=1.585 //y=7.4 //x2=0.875 //y2=7.4
r229 (  29 128 ) resistor r=4.11603 //w=0.68 //l=0.17 //layer=li \
 //thickness=0.1 //x=0.79 //y=7.23 //x2=0.79 //y2=7.4
r230 (  29 143 ) resistor r=56.4706 //w=0.187 //l=0.825 //layer=li \
 //thickness=0.1 //x=0.79 //y=7.23 //x2=0.79 //y2=6.405
r231 (  23 142 ) resistor r=4.65 //w=0.17 //l=0.34 //layer=mcon //count=2 \
 //x=11.47 //y=7.4 //x2=11.47 //y2=7.4
r232 (  21 140 ) resistor r=3.1 //w=0.17 //l=0.51 //layer=mcon //count=3 \
 //x=10.73 //y=7.4 //x2=10.73 //y2=7.4
r233 (  21 23 ) resistor r=0.307309 //w=0.301 //l=0.74 //layer=m1 \
 //thickness=0.36 //x=10.73 //y=7.4 //x2=11.47 //y2=7.4
r234 (  19 137 ) resistor r=3.1 //w=0.17 //l=0.51 //layer=mcon //count=3 \
 //x=9.25 //y=7.4 //x2=9.25 //y2=7.4
r235 (  19 21 ) resistor r=0.614618 //w=0.301 //l=1.48 //layer=m1 \
 //thickness=0.36 //x=9.25 //y=7.4 //x2=10.73 //y2=7.4
r236 (  17 88 ) resistor r=3.1 //w=0.17 //l=0.51 //layer=mcon //count=3 \
 //x=8.14 //y=7.4 //x2=8.14 //y2=7.4
r237 (  17 19 ) resistor r=0.460963 //w=0.301 //l=1.11 //layer=m1 \
 //thickness=0.36 //x=8.14 //y=7.4 //x2=9.25 //y2=7.4
r238 (  15 78 ) resistor r=3.1 //w=0.17 //l=0.51 //layer=mcon //count=3 \
 //x=7.03 //y=7.4 //x2=7.03 //y2=7.4
r239 (  15 17 ) resistor r=0.460963 //w=0.301 //l=1.11 //layer=m1 \
 //thickness=0.36 //x=7.03 //y=7.4 //x2=8.14 //y2=7.4
r240 (  12 72 ) resistor r=3.1 //w=0.17 //l=0.51 //layer=mcon //count=3 \
 //x=5.55 //y=7.4 //x2=5.55 //y2=7.4
r241 (  10 62 ) resistor r=3.1 //w=0.17 //l=0.51 //layer=mcon //count=3 \
 //x=4.44 //y=7.4 //x2=4.44 //y2=7.4
r242 (  10 12 ) resistor r=0.460963 //w=0.301 //l=1.11 //layer=m1 \
 //thickness=0.36 //x=4.44 //y=7.4 //x2=5.55 //y2=7.4
r243 (  8 56 ) resistor r=3.1 //w=0.17 //l=0.51 //layer=mcon //count=3 \
 //x=2.96 //y=7.4 //x2=2.96 //y2=7.4
r244 (  8 10 ) resistor r=0.614618 //w=0.301 //l=1.48 //layer=m1 \
 //thickness=0.36 //x=2.96 //y=7.4 //x2=4.44 //y2=7.4
r245 (  6 46 ) resistor r=3.1 //w=0.17 //l=0.51 //layer=mcon //count=3 \
 //x=1.85 //y=7.4 //x2=1.85 //y2=7.4
r246 (  6 8 ) resistor r=0.460963 //w=0.301 //l=1.11 //layer=m1 \
 //thickness=0.36 //x=1.85 //y=7.4 //x2=2.96 //y2=7.4
r247 (  3 128 ) resistor r=3.1 //w=0.17 //l=0.51 //layer=mcon //count=3 \
 //x=0.74 //y=7.4 //x2=0.74 //y2=7.4
r248 (  3 6 ) resistor r=0.460963 //w=0.301 //l=1.11 //layer=m1 \
 //thickness=0.36 //x=0.74 //y=7.4 //x2=1.85 //y2=7.4
r249 (  1 15 ) resistor r=0.384136 //w=0.301 //l=0.925 //layer=m1 \
 //thickness=0.36 //x=6.105 //y=7.4 //x2=7.03 //y2=7.4
r250 (  1 12 ) resistor r=0.230482 //w=0.301 //l=0.555 //layer=m1 \
 //thickness=0.36 //x=6.105 //y=7.4 //x2=5.55 //y2=7.4
ends PM_AOA4X1\%VDD

subckt PM_AOA4X1\%noxref_3 ( 1 2 13 14 25 27 28 32 35 39 41 43 44 45 46 47 48 \
 49 53 55 58 60 61 66 76 78 79 )
c144 ( 79 0 ) capacitor c=0.0220291f //x=1.965 //y=5.02
c145 ( 78 0 ) capacitor c=0.0217503f //x=1.085 //y=5.02
c146 ( 76 0 ) capacitor c=0.00865153f //x=1.96 //y=0.905
c147 ( 66 0 ) capacitor c=0.04214f //x=4.285 //y=4.705
c148 ( 61 0 ) capacitor c=0.0321911f //x=4.775 //y=1.25
c149 ( 60 0 ) capacitor c=0.0185201f //x=4.775 //y=0.905
c150 ( 58 0 ) capacitor c=0.0344254f //x=4.705 //y=4.795
c151 ( 55 0 ) capacitor c=0.0133656f //x=4.62 //y=1.405
c152 ( 53 0 ) capacitor c=0.0157804f //x=4.62 //y=0.75
c153 ( 49 0 ) capacitor c=0.0785055f //x=4.245 //y=1.915
c154 ( 48 0 ) capacitor c=0.022867f //x=4.245 //y=1.56
c155 ( 47 0 ) capacitor c=0.0234318f //x=4.245 //y=1.25
c156 ( 46 0 ) capacitor c=0.0192004f //x=4.245 //y=0.905
c157 ( 45 0 ) capacitor c=0.110795f //x=4.78 //y=6.025
c158 ( 44 0 ) capacitor c=0.153847f //x=4.34 //y=6.025
c159 ( 41 0 ) capacitor c=0.00995068f //x=4.285 //y=4.705
c160 ( 39 0 ) capacitor c=0.00427536f //x=2.11 //y=5.2
c161 ( 35 0 ) capacitor c=0.0968481f //x=4.44 //y=2.08
c162 ( 32 0 ) capacitor c=0.117241f //x=2.59 //y=2.59
c163 ( 28 0 ) capacitor c=0.00781917f //x=2.235 //y=1.655
c164 ( 27 0 ) capacitor c=0.0159132f //x=2.505 //y=1.655
c165 ( 25 0 ) capacitor c=0.017841f //x=2.505 //y=5.2
c166 ( 14 0 ) capacitor c=0.00387264f //x=1.315 //y=5.2
c167 ( 13 0 ) capacitor c=0.0222171f //x=2.025 //y=5.2
c168 ( 2 0 ) capacitor c=0.0173935f //x=2.705 //y=2.59
c169 ( 1 0 ) capacitor c=0.111807f //x=4.325 //y=2.59
r170 (  68 69 ) resistor r=32.4568 //w=0.214 //l=0.075 //layer=ply \
 //thickness=0.18 //x=4.285 //y=4.795 //x2=4.285 //y2=4.87
r171 (  66 68 ) resistor r=20.271 //w=0.214 //l=0.09 //layer=ply \
 //thickness=0.18 //x=4.285 //y=4.705 //x2=4.285 //y2=4.795
r172 (  61 75 ) resistor r=45.1352 //w=0.168 //l=0.173853 //layer=ply \
 //thickness=0.18 //x=4.775 //y=1.25 //x2=4.735 //y2=1.405
r173 (  60 74 ) resistor r=45.1352 //w=0.168 //l=0.173853 //layer=ply \
 //thickness=0.18 //x=4.775 //y=0.905 //x2=4.735 //y2=0.75
r174 (  60 61 ) resistor r=176.904 //w=0.094 //l=0.345 //layer=ply \
 //thickness=0.18 //x=4.775 //y=0.905 //x2=4.775 //y2=1.25
r175 (  59 68 ) resistor r=16.5046 //w=0.27 //l=0.135 //layer=ply \
 //thickness=0.18 //x=4.42 //y=4.795 //x2=4.285 //y2=4.795
r176 (  58 62 ) resistor r=26.9307 //w=0.15 //l=0.106066 //layer=ply \
 //thickness=0.18 //x=4.705 //y=4.795 //x2=4.78 //y2=4.87
r177 (  58 59 ) resistor r=146.138 //w=0.094 //l=0.285 //layer=ply \
 //thickness=0.18 //x=4.705 //y=4.795 //x2=4.42 //y2=4.795
r178 (  56 73 ) resistor r=10.701 //w=0.21 //l=0.115 //layer=ply \
 //thickness=0.18 //x=4.4 //y=1.405 //x2=4.285 //y2=1.405
r179 (  55 75 ) resistor r=5.52526 //w=0.168 //l=0.115 //layer=ply \
 //thickness=0.18 //x=4.62 //y=1.405 //x2=4.735 //y2=1.405
r180 (  54 72 ) resistor r=5.52526 //w=0.168 //l=0.115 //layer=ply \
 //thickness=0.18 //x=4.4 //y=0.75 //x2=4.285 //y2=0.75
r181 (  53 74 ) resistor r=5.52526 //w=0.168 //l=0.115 //layer=ply \
 //thickness=0.18 //x=4.62 //y=0.75 //x2=4.735 //y2=0.75
r182 (  53 54 ) resistor r=112.809 //w=0.094 //l=0.22 //layer=ply \