// File: aoai4x1_pcell.spi.AOAI4X1_PCELL.pxi
// Created: Tue Oct 15 15:55:12 2024
// 
simulator lang=spectre
x_PM_AOAI4X1_PCELL\%noxref_1 ( N_noxref_1_c_13_p N_noxref_1_c_62_p \
 N_noxref_1_c_1_p N_noxref_1_c_69_p N_noxref_1_c_88_p N_noxref_1_c_5_p \
 N_noxref_1_c_21_p N_noxref_1_c_33_p N_noxref_1_c_36_p N_noxref_1_c_126_p \
 N_noxref_1_c_42_p N_noxref_1_c_4_p N_noxref_1_c_2_p N_noxref_1_c_3_p \
 N_noxref_1_M0_noxref_d N_noxref_1_M2_noxref_s N_noxref_1_M4_noxref_d )  \
 PM_AOAI4X1_PCELL\%noxref_1
x_PM_AOAI4X1_PCELL\%noxref_2 ( N_noxref_2_c_154_p N_noxref_2_c_136_p \
 N_noxref_2_c_137_p N_noxref_2_c_148_p N_noxref_2_c_151_p N_noxref_2_c_172_p \
 N_noxref_2_c_222_p N_noxref_2_c_131_n N_noxref_2_c_132_n N_noxref_2_c_133_n \
 N_noxref_2_c_134_n N_noxref_2_M6_noxref_s N_noxref_2_M7_noxref_d \
 N_noxref_2_M9_noxref_d N_noxref_2_M10_noxref_d N_noxref_2_M14_noxref_s \
 N_noxref_2_M15_noxref_d N_noxref_2_M17_noxref_d )  PM_AOAI4X1_PCELL\%noxref_2
x_PM_AOAI4X1_PCELL\%noxref_3 ( N_noxref_3_c_246_n N_noxref_3_c_249_n \
 N_noxref_3_c_269_n N_noxref_3_c_272_n N_noxref_3_c_274_n N_noxref_3_c_250_n \
 N_noxref_3_c_345_p N_noxref_3_c_252_n N_noxref_3_c_254_n N_noxref_3_c_333_p \
 N_noxref_3_c_279_n N_noxref_3_M2_noxref_g N_noxref_3_M10_noxref_g \
 N_noxref_3_M11_noxref_g N_noxref_3_c_257_n N_noxref_3_c_307_p \
 N_noxref_3_c_308_p N_noxref_3_c_259_n N_noxref_3_c_261_n N_noxref_3_c_311_p \
 N_noxref_3_c_354_p N_noxref_3_c_262_n N_noxref_3_c_264_n N_noxref_3_c_286_n \
 N_noxref_3_M1_noxref_d N_noxref_3_M6_noxref_d N_noxref_3_M8_noxref_d )  \
 PM_AOAI4X1_PCELL\%noxref_3
x_PM_AOAI4X1_PCELL\%noxref_4 ( N_noxref_4_c_390_n N_noxref_4_c_392_n \
 N_noxref_4_c_394_n N_noxref_4_c_442_n N_noxref_4_c_425_n N_noxref_4_c_427_n \
 N_noxref_4_c_398_n N_noxref_4_c_402_n N_noxref_4_c_404_n \
 N_noxref_4_M4_noxref_g N_noxref_4_M14_noxref_g N_noxref_4_M15_noxref_g \
 N_noxref_4_c_405_n N_noxref_4_c_407_n N_noxref_4_c_408_n N_noxref_4_c_409_n \
 N_noxref_4_c_410_n N_noxref_4_c_411_n N_noxref_4_c_412_n N_noxref_4_c_414_n \
 N_noxref_4_c_436_n N_noxref_4_M2_noxref_d N_noxref_4_M3_noxref_d \
 N_noxref_4_M12_noxref_d )  PM_AOAI4X1_PCELL\%noxref_4
x_PM_AOAI4X1_PCELL\%noxref_5 ( N_noxref_5_c_531_n N_noxref_5_M0_noxref_g \
 N_noxref_5_M6_noxref_g N_noxref_5_M7_noxref_g N_noxref_5_c_532_n \
 N_noxref_5_c_534_n N_noxref_5_c_535_n N_noxref_5_c_536_n N_noxref_5_c_537_n \
 N_noxref_5_c_538_n N_noxref_5_c_539_n N_noxref_5_c_541_n N_noxref_5_c_548_n ) \
 PM_AOAI4X1_PCELL\%noxref_5
x_PM_AOAI4X1_PCELL\%noxref_6 ( N_noxref_6_c_595_n N_noxref_6_c_586_n \
 N_noxref_6_M1_noxref_g N_noxref_6_M8_noxref_g N_noxref_6_M9_noxref_g \
 N_noxref_6_c_604_n N_noxref_6_c_605_n N_noxref_6_c_606_n N_noxref_6_c_607_n \
 N_noxref_6_c_609_n N_noxref_6_c_610_n N_noxref_6_c_612_n N_noxref_6_c_613_n \
 N_noxref_6_c_615_n N_noxref_6_c_616_n N_noxref_6_c_618_n )  \
 PM_AOAI4X1_PCELL\%noxref_6
x_PM_AOAI4X1_PCELL\%noxref_7 ( N_noxref_7_c_674_n N_noxref_7_c_650_n \
 N_noxref_7_c_654_n N_noxref_7_c_658_n N_noxref_7_c_659_n N_noxref_7_c_662_n \
 N_noxref_7_M0_noxref_s )  PM_AOAI4X1_PCELL\%noxref_7
x_PM_AOAI4X1_PCELL\%noxref_8 ( N_noxref_8_c_714_n N_noxref_8_c_701_n \
 N_noxref_8_M3_noxref_g N_noxref_8_M12_noxref_g N_noxref_8_M13_noxref_g \
 N_noxref_8_c_703_n N_noxref_8_c_726_n N_noxref_8_c_729_n N_noxref_8_c_753_n \
 N_noxref_8_c_705_n N_noxref_8_c_706_n N_noxref_8_c_707_n N_noxref_8_c_733_n \
 N_noxref_8_c_734_n N_noxref_8_c_736_n N_noxref_8_c_737_n )  \
 PM_AOAI4X1_PCELL\%noxref_8
x_PM_AOAI4X1_PCELL\%noxref_9 ( N_noxref_9_c_772_n N_noxref_9_c_776_n \
 N_noxref_9_c_777_n N_noxref_9_c_778_n N_noxref_9_M10_noxref_s \
 N_noxref_9_M11_noxref_d N_noxref_9_M13_noxref_d )  PM_AOAI4X1_PCELL\%noxref_9
x_PM_AOAI4X1_PCELL\%noxref_10 ( N_noxref_10_c_824_n N_noxref_10_c_815_n \
 N_noxref_10_M5_noxref_g N_noxref_10_M16_noxref_g N_noxref_10_M17_noxref_g \
 N_noxref_10_c_833_n N_noxref_10_c_836_n N_noxref_10_c_838_n \
 N_noxref_10_c_855_p N_noxref_10_c_863_p N_noxref_10_c_851_p \
 N_noxref_10_c_841_n N_noxref_10_c_842_n N_noxref_10_c_843_n \
 N_noxref_10_c_857_p N_noxref_10_c_845_n )  PM_AOAI4X1_PCELL\%noxref_10
x_PM_AOAI4X1_PCELL\%noxref_11 ( N_noxref_11_c_884_n N_noxref_11_c_887_n \
 N_noxref_11_c_889_n N_noxref_11_c_879_n N_noxref_11_c_933_p \
 N_noxref_11_c_880_n N_noxref_11_c_922_n N_noxref_11_M5_noxref_d \
 N_noxref_11_M14_noxref_d N_noxref_11_M16_noxref_d )  \
 PM_AOAI4X1_PCELL\%noxref_11
x_PM_AOAI4X1_PCELL\%noxref_12 ( N_noxref_12_c_957_n N_noxref_12_c_939_n \
 N_noxref_12_c_943_n N_noxref_12_c_946_n N_noxref_12_c_947_n \
 N_noxref_12_c_949_n N_noxref_12_M4_noxref_s )  PM_AOAI4X1_PCELL\%noxref_12
cc_1 ( N_noxref_1_c_1_p N_noxref_2_c_131_n ) capacitor c=0.00989031f //x=0.74 \
 //y=0 //x2=0.74 //y2=7.4
cc_2 ( N_noxref_1_c_2_p N_noxref_2_c_132_n ) capacitor c=0.00962895f //x=3.33 \
 //y=0 //x2=3.33 //y2=7.4
cc_3 ( N_noxref_1_c_3_p N_noxref_2_c_133_n ) capacitor c=0.00962895f //x=6.66 \
 //y=0 //x2=6.66 //y2=7.4
cc_4 ( N_noxref_1_c_4_p N_noxref_2_c_134_n ) capacitor c=0.00989031f //x=9.25 \
 //y=0 //x2=9.25 //y2=7.4
cc_5 ( N_noxref_1_c_5_p N_noxref_3_c_246_n ) capacitor c=7.22787e-19 //x=4.425 \
 //y=0.53 //x2=4.325 //y2=2.59
cc_6 ( N_noxref_1_c_2_p N_noxref_3_c_246_n ) capacitor c=0.0435449f //x=3.33 \
 //y=0 //x2=4.325 //y2=2.59
cc_7 ( N_noxref_1_M2_noxref_s N_noxref_3_c_246_n ) capacitor c=0.00494344f \
 //x=3.89 //y=0.365 //x2=4.325 //y2=2.59
cc_8 ( N_noxref_1_c_2_p N_noxref_3_c_249_n ) capacitor c=0.00102529f //x=3.33 \
 //y=0 //x2=2.705 //y2=2.59
cc_9 ( N_noxref_1_c_2_p N_noxref_3_c_250_n ) capacitor c=0.0431271f //x=3.33 \
 //y=0 //x2=2.505 //y2=1.655
cc_10 ( N_noxref_1_M2_noxref_s N_noxref_3_c_250_n ) capacitor c=3.00901e-19 \
 //x=3.89 //y=0.365 //x2=2.505 //y2=1.655
cc_11 ( N_noxref_1_c_1_p N_noxref_3_c_252_n ) capacitor c=0.00101801f //x=0.74 \
 //y=0 //x2=2.59 //y2=2.59
cc_12 ( N_noxref_1_c_2_p N_noxref_3_c_252_n ) capacitor c=5.56859e-19 //x=3.33 \
 //y=0 //x2=2.59 //y2=2.59
cc_13 ( N_noxref_1_c_13_p N_noxref_3_c_254_n ) capacitor c=6.7762e-19 //x=9.25 \
 //y=0 //x2=4.44 //y2=2.08
cc_14 ( N_noxref_1_c_5_p N_noxref_3_c_254_n ) capacitor c=0.00133118f \
 //x=4.425 //y=0.53 //x2=4.44 //y2=2.08
cc_15 ( N_noxref_1_c_2_p N_noxref_3_c_254_n ) capacitor c=0.0147015f //x=3.33 \
 //y=0 //x2=4.44 //y2=2.08
cc_16 ( N_noxref_1_c_5_p N_noxref_3_c_257_n ) capacitor c=0.0122561f //x=4.425 \
 //y=0.53 //x2=4.245 //y2=0.905
cc_17 ( N_noxref_1_M2_noxref_s N_noxref_3_c_257_n ) capacitor c=0.0318086f \
 //x=3.89 //y=0.365 //x2=4.245 //y2=0.905
cc_18 ( N_noxref_1_c_5_p N_noxref_3_c_259_n ) capacitor c=2.1838e-19 //x=4.425 \
 //y=0.53 //x2=4.245 //y2=1.915
cc_19 ( N_noxref_1_c_2_p N_noxref_3_c_259_n ) capacitor c=0.0131707f //x=3.33 \
 //y=0 //x2=4.245 //y2=1.915
cc_20 ( N_noxref_1_M2_noxref_s N_noxref_3_c_261_n ) capacitor c=0.00476335f \
 //x=3.89 //y=0.365 //x2=4.62 //y2=0.75
cc_21 ( N_noxref_1_c_21_p N_noxref_3_c_262_n ) capacitor c=0.0113279f //x=4.91 \
 //y=0.53 //x2=4.775 //y2=0.905
cc_22 ( N_noxref_1_M2_noxref_s N_noxref_3_c_262_n ) capacitor c=0.00514143f \
 //x=3.89 //y=0.365 //x2=4.775 //y2=0.905
cc_23 ( N_noxref_1_M2_noxref_s N_noxref_3_c_264_n ) capacitor c=8.33128e-19 \
 //x=3.89 //y=0.365 //x2=4.775 //y2=1.25
cc_24 ( N_noxref_1_c_1_p N_noxref_3_M1_noxref_d ) capacitor c=8.58106e-19 \
 //x=0.74 //y=0 //x2=1.96 //y2=0.905
cc_25 ( N_noxref_1_c_2_p N_noxref_3_M1_noxref_d ) capacitor c=0.00616547f \
 //x=3.33 //y=0 //x2=1.96 //y2=0.905
cc_26 ( N_noxref_1_M0_noxref_d N_noxref_3_M1_noxref_d ) capacitor \
 c=0.00143464f //x=0.99 //y=0.865 //x2=1.96 //y2=0.905
cc_27 ( N_noxref_1_c_3_p N_noxref_4_c_390_n ) capacitor c=0.0435449f //x=6.66 \
 //y=0 //x2=7.655 //y2=2.59
cc_28 ( N_noxref_1_M2_noxref_s N_noxref_4_c_390_n ) capacitor c=3.07321e-19 \
 //x=3.89 //y=0.365 //x2=7.655 //y2=2.59
cc_29 ( N_noxref_1_c_3_p N_noxref_4_c_392_n ) capacitor c=0.00102529f //x=6.66 \
 //y=0 //x2=6.035 //y2=2.59
cc_30 ( N_noxref_1_M2_noxref_s N_noxref_4_c_392_n ) capacitor c=0.00162156f \
 //x=3.89 //y=0.365 //x2=6.035 //y2=2.59
cc_31 ( N_noxref_1_c_13_p N_noxref_4_c_394_n ) capacitor c=0.00359057f \
 //x=9.25 //y=0 //x2=5.395 //y2=1.655
cc_32 ( N_noxref_1_c_21_p N_noxref_4_c_394_n ) capacitor c=0.00381844f \
 //x=4.91 //y=0.53 //x2=5.395 //y2=1.655
cc_33 ( N_noxref_1_c_33_p N_noxref_4_c_394_n ) capacitor c=0.00323369f \
 //x=5.395 //y=0.53 //x2=5.395 //y2=1.655
cc_34 ( N_noxref_1_M2_noxref_s N_noxref_4_c_394_n ) capacitor c=0.0173679f \
 //x=3.89 //y=0.365 //x2=5.395 //y2=1.655
cc_35 ( N_noxref_1_c_13_p N_noxref_4_c_398_n ) capacitor c=0.00232664f \
 //x=9.25 //y=0 //x2=5.835 //y2=1.655
cc_36 ( N_noxref_1_c_36_p N_noxref_4_c_398_n ) capacitor c=0.0047903f //x=5.88 \
 //y=0.53 //x2=5.835 //y2=1.655
cc_37 ( N_noxref_1_c_3_p N_noxref_4_c_398_n ) capacitor c=0.04345f //x=6.66 \
 //y=0 //x2=5.835 //y2=1.655
cc_38 ( N_noxref_1_M2_noxref_s N_noxref_4_c_398_n ) capacitor c=0.0145566f \
 //x=3.89 //y=0.365 //x2=5.835 //y2=1.655
cc_39 ( N_noxref_1_c_2_p N_noxref_4_c_402_n ) capacitor c=9.64732e-19 //x=3.33 \
 //y=0 //x2=5.92 //y2=2.59
cc_40 ( N_noxref_1_c_3_p N_noxref_4_c_402_n ) capacitor c=5.56859e-19 //x=6.66 \
 //y=0 //x2=5.92 //y2=2.59
cc_41 ( N_noxref_1_c_3_p N_noxref_4_c_404_n ) capacitor c=0.0150626f //x=6.66 \
 //y=0 //x2=7.77 //y2=2.08
cc_42 ( N_noxref_1_c_42_p N_noxref_4_c_405_n ) capacitor c=0.00135046f \
 //x=7.755 //y=0 //x2=7.575 //y2=0.865
cc_43 ( N_noxref_1_M4_noxref_d N_noxref_4_c_405_n ) capacitor c=0.00220047f \
 //x=7.65 //y=0.865 //x2=7.575 //y2=0.865
cc_44 ( N_noxref_1_M4_noxref_d N_noxref_4_c_407_n ) capacitor c=0.00255985f \
 //x=7.65 //y=0.865 //x2=7.575 //y2=1.21
cc_45 ( N_noxref_1_c_3_p N_noxref_4_c_408_n ) capacitor c=0.0018059f //x=6.66 \
 //y=0 //x2=7.575 //y2=1.52
cc_46 ( N_noxref_1_c_3_p N_noxref_4_c_409_n ) capacitor c=0.0114883f //x=6.66 \
 //y=0 //x2=7.575 //y2=1.915
cc_47 ( N_noxref_1_M4_noxref_d N_noxref_4_c_410_n ) capacitor c=0.0131326f \
 //x=7.65 //y=0.865 //x2=7.95 //y2=0.71
cc_48 ( N_noxref_1_M4_noxref_d N_noxref_4_c_411_n ) capacitor c=0.00193127f \
 //x=7.65 //y=0.865 //x2=7.95 //y2=1.365
cc_49 ( N_noxref_1_c_4_p N_noxref_4_c_412_n ) capacitor c=0.00130622f //x=9.25 \
 //y=0 //x2=8.105 //y2=0.865
cc_50 ( N_noxref_1_M4_noxref_d N_noxref_4_c_412_n ) capacitor c=0.00257848f \
 //x=7.65 //y=0.865 //x2=8.105 //y2=0.865
cc_51 ( N_noxref_1_M4_noxref_d N_noxref_4_c_414_n ) capacitor c=0.00255985f \
 //x=7.65 //y=0.865 //x2=8.105 //y2=1.21
cc_52 ( N_noxref_1_c_13_p N_noxref_4_M2_noxref_d ) capacitor c=0.00175924f \
 //x=9.25 //y=0 //x2=4.32 //y2=0.905
cc_53 ( N_noxref_1_c_4_p N_noxref_4_M2_noxref_d ) capacitor c=2.31043e-19 \
 //x=9.25 //y=0 //x2=4.32 //y2=0.905
cc_54 ( N_noxref_1_c_2_p N_noxref_4_M2_noxref_d ) capacitor c=0.00416273f \
 //x=3.33 //y=0 //x2=4.32 //y2=0.905
cc_55 ( N_noxref_1_c_3_p N_noxref_4_M2_noxref_d ) capacitor c=2.57516e-19 \
 //x=6.66 //y=0 //x2=4.32 //y2=0.905
cc_56 ( N_noxref_1_M2_noxref_s N_noxref_4_M2_noxref_d ) capacitor c=0.0769466f \
 //x=3.89 //y=0.365 //x2=4.32 //y2=0.905
cc_57 ( N_noxref_1_c_13_p N_noxref_4_M3_noxref_d ) capacitor c=0.00195394f \
 //x=9.25 //y=0 //x2=5.29 //y2=0.905
cc_58 ( N_noxref_1_c_4_p N_noxref_4_M3_noxref_d ) capacitor c=2.31043e-19 \
 //x=9.25 //y=0 //x2=5.29 //y2=0.905
cc_59 ( N_noxref_1_c_3_p N_noxref_4_M3_noxref_d ) capacitor c=0.00609243f \
 //x=6.66 //y=0 //x2=5.29 //y2=0.905
cc_60 ( N_noxref_1_M2_noxref_s N_noxref_4_M3_noxref_d ) capacitor c=0.0610175f \
 //x=3.89 //y=0.365 //x2=5.29 //y2=0.905
cc_61 ( N_noxref_1_c_1_p N_noxref_5_c_531_n ) capacitor c=0.0180518f //x=0.74 \
 //y=0 //x2=1.11 //y2=2.08
cc_62 ( N_noxref_1_c_62_p N_noxref_5_c_532_n ) capacitor c=0.00135046f \
 //x=1.095 //y=0 //x2=0.915 //y2=0.865
cc_63 ( N_noxref_1_M0_noxref_d N_noxref_5_c_532_n ) capacitor c=0.00220047f \
 //x=0.99 //y=0.865 //x2=0.915 //y2=0.865
cc_64 ( N_noxref_1_M0_noxref_d N_noxref_5_c_534_n ) capacitor c=0.00255985f \
 //x=0.99 //y=0.865 //x2=0.915 //y2=1.21
cc_65 ( N_noxref_1_c_1_p N_noxref_5_c_535_n ) capacitor c=0.00264481f //x=0.74 \
 //y=0 //x2=0.915 //y2=1.52
cc_66 ( N_noxref_1_c_1_p N_noxref_5_c_536_n ) capacitor c=0.0121947f //x=0.74 \
 //y=0 //x2=0.915 //y2=1.915
cc_67 ( N_noxref_1_M0_noxref_d N_noxref_5_c_537_n ) capacitor c=0.0131326f \
 //x=0.99 //y=0.865 //x2=1.29 //y2=0.71
cc_68 ( N_noxref_1_M0_noxref_d N_noxref_5_c_538_n ) capacitor c=0.00193127f \
 //x=0.99 //y=0.865 //x2=1.29 //y2=1.365
cc_69 ( N_noxref_1_c_69_p N_noxref_5_c_539_n ) capacitor c=0.00130622f \
 //x=3.16 //y=0 //x2=1.445 //y2=0.865
cc_70 ( N_noxref_1_M0_noxref_d N_noxref_5_c_539_n ) capacitor c=0.00257848f \
 //x=0.99 //y=0.865 //x2=1.445 //y2=0.865
cc_71 ( N_noxref_1_M0_noxref_d N_noxref_5_c_541_n ) capacitor c=0.00255985f \
 //x=0.99 //y=0.865 //x2=1.445 //y2=1.21
cc_72 ( N_noxref_1_c_1_p N_noxref_6_c_586_n ) capacitor c=9.2064e-19 //x=0.74 \
 //y=0 //x2=1.85 //y2=2.08
cc_73 ( N_noxref_1_c_2_p N_noxref_6_c_586_n ) capacitor c=0.00110071f //x=3.33 \
 //y=0 //x2=1.85 //y2=2.08
cc_74 ( N_noxref_1_c_13_p N_noxref_7_c_650_n ) capacitor c=0.00710948f \
 //x=9.25 //y=0 //x2=1.58 //y2=1.58
cc_75 ( N_noxref_1_c_62_p N_noxref_7_c_650_n ) capacitor c=0.00111428f \
 //x=1.095 //y=0 //x2=1.58 //y2=1.58
cc_76 ( N_noxref_1_c_69_p N_noxref_7_c_650_n ) capacitor c=0.00180846f \
 //x=3.16 //y=0 //x2=1.58 //y2=1.58
cc_77 ( N_noxref_1_M0_noxref_d N_noxref_7_c_650_n ) capacitor c=0.0090983f \
 //x=0.99 //y=0.865 //x2=1.58 //y2=1.58
cc_78 ( N_noxref_1_c_13_p N_noxref_7_c_654_n ) capacitor c=0.00723598f \
 //x=9.25 //y=0 //x2=1.665 //y2=0.615
cc_79 ( N_noxref_1_c_69_p N_noxref_7_c_654_n ) capacitor c=0.0146208f //x=3.16 \
 //y=0 //x2=1.665 //y2=0.615
cc_80 ( N_noxref_1_c_4_p N_noxref_7_c_654_n ) capacitor c=0.00145873f //x=9.25 \
 //y=0 //x2=1.665 //y2=0.615
cc_81 ( N_noxref_1_M0_noxref_d N_noxref_7_c_654_n ) capacitor c=0.033812f \
 //x=0.99 //y=0.865 //x2=1.665 //y2=0.615
cc_82 ( N_noxref_1_c_1_p N_noxref_7_c_658_n ) capacitor c=2.91423e-19 //x=0.74 \
 //y=0 //x2=1.665 //y2=1.495
cc_83 ( N_noxref_1_c_13_p N_noxref_7_c_659_n ) capacitor c=0.0199727f //x=9.25 \
 //y=0 //x2=2.55 //y2=0.53
cc_84 ( N_noxref_1_c_69_p N_noxref_7_c_659_n ) capacitor c=0.0371035f //x=3.16 \
 //y=0 //x2=2.55 //y2=0.53
cc_85 ( N_noxref_1_c_4_p N_noxref_7_c_659_n ) capacitor c=0.00198596f //x=9.25 \
 //y=0 //x2=2.55 //y2=0.53
cc_86 ( N_noxref_1_c_13_p N_noxref_7_c_662_n ) capacitor c=0.00719615f \
 //x=9.25 //y=0 //x2=2.635 //y2=0.615
cc_87 ( N_noxref_1_c_69_p N_noxref_7_c_662_n ) capacitor c=0.0144264f //x=3.16 \
 //y=0 //x2=2.635 //y2=0.615
cc_88 ( N_noxref_1_c_88_p N_noxref_7_c_662_n ) capacitor c=9.02073e-19 \
 //x=4.025 //y=0.445 //x2=2.635 //y2=0.615
cc_89 ( N_noxref_1_c_4_p N_noxref_7_c_662_n ) capacitor c=0.00145015f //x=9.25 \
 //y=0 //x2=2.635 //y2=0.615
cc_90 ( N_noxref_1_c_2_p N_noxref_7_c_662_n ) capacitor c=0.0431718f //x=3.33 \
 //y=0 //x2=2.635 //y2=0.615
cc_91 ( N_noxref_1_c_13_p N_noxref_7_M0_noxref_s ) capacitor c=0.00723598f \
 //x=9.25 //y=0 //x2=0.56 //y2=0.365
cc_92 ( N_noxref_1_c_62_p N_noxref_7_M0_noxref_s ) capacitor c=0.0146208f \
 //x=1.095 //y=0 //x2=0.56 //y2=0.365
cc_93 ( N_noxref_1_c_1_p N_noxref_7_M0_noxref_s ) capacitor c=0.0594057f \
 //x=0.74 //y=0 //x2=0.56 //y2=0.365
cc_94 ( N_noxref_1_c_4_p N_noxref_7_M0_noxref_s ) capacitor c=0.00145873f \
 //x=9.25 //y=0 //x2=0.56 //y2=0.365
cc_95 ( N_noxref_1_c_2_p N_noxref_7_M0_noxref_s ) capacitor c=0.00198043f \
 //x=3.33 //y=0 //x2=0.56 //y2=0.365
cc_96 ( N_noxref_1_M0_noxref_d N_noxref_7_M0_noxref_s ) capacitor c=0.0334197f \
 //x=0.99 //y=0.865 //x2=0.56 //y2=0.365
cc_97 ( N_noxref_1_M2_noxref_s N_noxref_7_M0_noxref_s ) capacitor \
 c=9.02073e-19 //x=3.89 //y=0.365 //x2=0.56 //y2=0.365
cc_98 ( N_noxref_1_c_2_p N_noxref_8_c_701_n ) capacitor c=0.00112835f //x=3.33 \
 //y=0 //x2=5.18 //y2=2.08
cc_99 ( N_noxref_1_c_3_p N_noxref_8_c_701_n ) capacitor c=0.00110071f //x=6.66 \
 //y=0 //x2=5.18 //y2=2.08
cc_100 ( N_noxref_1_c_33_p N_noxref_8_c_703_n ) capacitor c=0.0109802f \
 //x=5.395 //y=0.53 //x2=5.215 //y2=0.905
cc_101 ( N_noxref_1_M2_noxref_s N_noxref_8_c_703_n ) capacitor c=0.00590563f \
 //x=3.89 //y=0.365 //x2=5.215 //y2=0.905
cc_102 ( N_noxref_1_M2_noxref_s N_noxref_8_c_705_n ) capacitor c=0.00466751f \
 //x=3.89 //y=0.365 //x2=5.59 //y2=0.75
cc_103 ( N_noxref_1_M2_noxref_s N_noxref_8_c_706_n ) capacitor c=0.00316186f \
 //x=3.89 //y=0.365 //x2=5.59 //y2=1.405
cc_104 ( N_noxref_1_c_36_p N_noxref_8_c_707_n ) capacitor c=0.0112321f \
 //x=5.88 //y=0.53 //x2=5.745 //y2=0.905
cc_105 ( N_noxref_1_M2_noxref_s N_noxref_8_c_707_n ) capacitor c=0.0142835f \
 //x=3.89 //y=0.365 //x2=5.745 //y2=0.905
cc_106 ( N_noxref_1_c_4_p N_noxref_10_c_815_n ) capacitor c=9.53263e-19 \
 //x=9.25 //y=0 //x2=8.51 //y2=2.08
cc_107 ( N_noxref_1_c_3_p N_noxref_10_c_815_n ) capacitor c=0.00112835f \
 //x=6.66 //y=0 //x2=8.51 //y2=2.08
cc_108 ( N_noxref_1_c_4_p N_noxref_11_c_879_n ) capacitor c=0.0468439f \
 //x=9.25 //y=0 //x2=9.165 //y2=1.655
cc_109 ( N_noxref_1_c_3_p N_noxref_11_c_880_n ) capacitor c=9.64732e-19 \
 //x=6.66 //y=0 //x2=9.25 //y2=5.115
cc_110 ( N_noxref_1_c_4_p N_noxref_11_M5_noxref_d ) capacitor c=0.00618259f \
 //x=9.25 //y=0 //x2=8.62 //y2=0.905
cc_111 ( N_noxref_1_c_3_p N_noxref_11_M5_noxref_d ) capacitor c=8.58106e-19 \
 //x=6.66 //y=0 //x2=8.62 //y2=0.905
cc_112 ( N_noxref_1_M4_noxref_d N_noxref_11_M5_noxref_d ) capacitor \
 c=0.00143464f //x=7.65 //y=0.865 //x2=8.62 //y2=0.905
cc_113 ( N_noxref_1_c_13_p N_noxref_12_c_939_n ) capacitor c=0.00708088f \
 //x=9.25 //y=0 //x2=8.24 //y2=1.58
cc_114 ( N_noxref_1_c_42_p N_noxref_12_c_939_n ) capacitor c=0.00111428f \
 //x=7.755 //y=0 //x2=8.24 //y2=1.58
cc_115 ( N_noxref_1_c_4_p N_noxref_12_c_939_n ) capacitor c=0.00180846f \
 //x=9.25 //y=0 //x2=8.24 //y2=1.58
cc_116 ( N_noxref_1_M4_noxref_d N_noxref_12_c_939_n ) capacitor c=0.00880942f \
 //x=7.65 //y=0.865 //x2=8.24 //y2=1.58
cc_117 ( N_noxref_1_c_13_p N_noxref_12_c_943_n ) capacitor c=0.00723598f \
 //x=9.25 //y=0 //x2=8.325 //y2=0.615
cc_118 ( N_noxref_1_c_4_p N_noxref_12_c_943_n ) capacitor c=0.0160795f \
 //x=9.25 //y=0 //x2=8.325 //y2=0.615
cc_119 ( N_noxref_1_M4_noxref_d N_noxref_12_c_943_n ) capacitor c=0.033812f \
 //x=7.65 //y=0.865 //x2=8.325 //y2=0.615
cc_120 ( N_noxref_1_c_3_p N_noxref_12_c_946_n ) capacitor c=2.91423e-19 \
 //x=6.66 //y=0 //x2=8.325 //y2=1.495
cc_121 ( N_noxref_1_c_13_p N_noxref_12_c_947_n ) capacitor c=0.0199727f \
 //x=9.25 //y=0 //x2=9.21 //y2=0.53
cc_122 ( N_noxref_1_c_4_p N_noxref_12_c_947_n ) capacitor c=0.0390895f \
 //x=9.25 //y=0 //x2=9.21 //y2=0.53
cc_123 ( N_noxref_1_c_13_p N_noxref_12_c_949_n ) capacitor c=0.00719615f \
 //x=9.25 //y=0 //x2=9.295 //y2=0.615
cc_124 ( N_noxref_1_c_4_p N_noxref_12_c_949_n ) capacitor c=0.0598581f \
 //x=9.25 //y=0 //x2=9.295 //y2=0.615
cc_125 ( N_noxref_1_c_13_p N_noxref_12_M4_noxref_s ) capacitor c=0.00723598f \
 //x=9.25 //y=0 //x2=7.22 //y2=0.365
cc_126 ( N_noxref_1_c_126_p N_noxref_12_M4_noxref_s ) capacitor c=0.00177507f \
 //x=5.965 //y=0.445 //x2=7.22 //y2=0.365
cc_127 ( N_noxref_1_c_42_p N_noxref_12_M4_noxref_s ) capacitor c=0.0146208f \
 //x=7.755 //y=0 //x2=7.22 //y2=0.365
cc_128 ( N_noxref_1_c_4_p N_noxref_12_M4_noxref_s ) capacitor c=0.00344356f \
 //x=9.25 //y=0 //x2=7.22 //y2=0.365
cc_129 ( N_noxref_1_c_3_p N_noxref_12_M4_noxref_s ) capacitor c=0.058339f \
 //x=6.66 //y=0 //x2=7.22 //y2=0.365
cc_130 ( N_noxref_1_M4_noxref_d N_noxref_12_M4_noxref_s ) capacitor \
 c=0.0334197f //x=7.65 //y=0.865 //x2=7.22 //y2=0.365
cc_131 ( N_noxref_2_c_132_n N_noxref_3_c_246_n ) capacitor c=0.00382812f \
 //x=3.33 //y=7.4 //x2=4.325 //y2=2.59
cc_132 ( N_noxref_2_c_136_p N_noxref_3_c_269_n ) capacitor c=5.76712e-19 \
 //x=1.585 //y=7.4 //x2=2.025 //y2=5.2
cc_133 ( N_noxref_2_c_137_p N_noxref_3_c_269_n ) capacitor c=5.76712e-19 \
 //x=2.465 //y=7.4 //x2=2.025 //y2=5.2
cc_134 ( N_noxref_2_M7_noxref_d N_noxref_3_c_269_n ) capacitor c=0.0132775f \
 //x=1.525 //y=5.02 //x2=2.025 //y2=5.2
cc_135 ( N_noxref_2_c_131_n N_noxref_3_c_272_n ) capacitor c=0.00989999f \
 //x=0.74 //y=7.4 //x2=1.315 //y2=5.2
cc_136 ( N_noxref_2_M6_noxref_s N_noxref_3_c_272_n ) capacitor c=0.087833f \
 //x=0.655 //y=5.02 //x2=1.315 //y2=5.2
cc_137 ( N_noxref_2_c_137_p N_noxref_3_c_274_n ) capacitor c=8.71806e-19 \
 //x=2.465 //y=7.4 //x2=2.505 //y2=5.2
cc_138 ( N_noxref_2_M9_noxref_d N_noxref_3_c_274_n ) capacitor c=0.0167784f \
 //x=2.405 //y=5.02 //x2=2.505 //y2=5.2
cc_139 ( N_noxref_2_c_131_n N_noxref_3_c_252_n ) capacitor c=0.00159771f \
 //x=0.74 //y=7.4 //x2=2.59 //y2=2.59
cc_140 ( N_noxref_2_c_132_n N_noxref_3_c_252_n ) capacitor c=0.0462672f \
 //x=3.33 //y=7.4 //x2=2.59 //y2=2.59
cc_141 ( N_noxref_2_c_132_n N_noxref_3_c_254_n ) capacitor c=0.0103855f \
 //x=3.33 //y=7.4 //x2=4.44 //y2=2.08
cc_142 ( N_noxref_2_c_132_n N_noxref_3_c_279_n ) capacitor c=0.00860173f \
 //x=3.33 //y=7.4 //x2=4.285 //y2=4.705
cc_143 ( N_noxref_2_M10_noxref_d N_noxref_3_c_279_n ) capacitor c=2.85008e-19 \
 //x=4.415 //y=5.025 //x2=4.285 //y2=4.705
cc_144 ( N_noxref_2_c_148_p N_noxref_3_M10_noxref_g ) capacitor c=0.0067918f \
 //x=4.475 //y=7.4 //x2=4.34 //y2=6.025
cc_145 ( N_noxref_2_c_132_n N_noxref_3_M10_noxref_g ) capacitor c=0.0105272f \
 //x=3.33 //y=7.4 //x2=4.34 //y2=6.025
cc_146 ( N_noxref_2_M10_noxref_d N_noxref_3_M10_noxref_g ) capacitor \
 c=0.0156786f //x=4.415 //y=5.025 //x2=4.34 //y2=6.025
cc_147 ( N_noxref_2_c_151_p N_noxref_3_M11_noxref_g ) capacitor c=0.00678153f \
 //x=6.49 //y=7.4 //x2=4.78 //y2=6.025
cc_148 ( N_noxref_2_M10_noxref_d N_noxref_3_M11_noxref_g ) capacitor \
 c=0.0183011f //x=4.415 //y=5.025 //x2=4.78 //y2=6.025
cc_149 ( N_noxref_2_c_132_n N_noxref_3_c_286_n ) capacitor c=0.00890932f \
 //x=3.33 //y=7.4 //x2=4.285 //y2=4.705
cc_150 ( N_noxref_2_c_154_p N_noxref_3_M6_noxref_d ) capacitor c=0.00719513f \
 //x=9.25 //y=7.4 //x2=1.085 //y2=5.02
cc_151 ( N_noxref_2_c_136_p N_noxref_3_M6_noxref_d ) capacitor c=0.0138103f \
 //x=1.585 //y=7.4 //x2=1.085 //y2=5.02
cc_152 ( N_noxref_2_c_132_n N_noxref_3_M6_noxref_d ) capacitor c=6.94454e-19 \
 //x=3.33 //y=7.4 //x2=1.085 //y2=5.02
cc_153 ( N_noxref_2_c_134_n N_noxref_3_M6_noxref_d ) capacitor c=0.00135231f \
 //x=9.25 //y=7.4 //x2=1.085 //y2=5.02
cc_154 ( N_noxref_2_M7_noxref_d N_noxref_3_M6_noxref_d ) capacitor \
 c=0.0664752f //x=1.525 //y=5.02 //x2=1.085 //y2=5.02
cc_155 ( N_noxref_2_c_154_p N_noxref_3_M8_noxref_d ) capacitor c=0.00719513f \
 //x=9.25 //y=7.4 //x2=1.965 //y2=5.02
cc_156 ( N_noxref_2_c_137_p N_noxref_3_M8_noxref_d ) capacitor c=0.0138379f \
 //x=2.465 //y=7.4 //x2=1.965 //y2=5.02
cc_157 ( N_noxref_2_c_132_n N_noxref_3_M8_noxref_d ) capacitor c=0.0120541f \
 //x=3.33 //y=7.4 //x2=1.965 //y2=5.02
cc_158 ( N_noxref_2_c_134_n N_noxref_3_M8_noxref_d ) capacitor c=0.00135231f \
 //x=9.25 //y=7.4 //x2=1.965 //y2=5.02
cc_159 ( N_noxref_2_M6_noxref_s N_noxref_3_M8_noxref_d ) capacitor \
 c=0.00111971f //x=0.655 //y=5.02 //x2=1.965 //y2=5.02
cc_160 ( N_noxref_2_M7_noxref_d N_noxref_3_M8_noxref_d ) capacitor \
 c=0.0664752f //x=1.525 //y=5.02 //x2=1.965 //y2=5.02
cc_161 ( N_noxref_2_M9_noxref_d N_noxref_3_M8_noxref_d ) capacitor \
 c=0.0664752f //x=2.405 //y=5.02 //x2=1.965 //y2=5.02
cc_162 ( N_noxref_2_c_133_n N_noxref_4_c_390_n ) capacitor c=0.00382812f \
 //x=6.66 //y=7.4 //x2=7.655 //y2=2.59
cc_163 ( N_noxref_2_c_151_p N_noxref_4_c_425_n ) capacitor c=9.65117e-19 \
 //x=6.49 //y=7.4 //x2=5.835 //y2=5.21
cc_164 ( N_noxref_2_M14_noxref_s N_noxref_4_c_425_n ) capacitor c=2.47894e-19 \
 //x=7.315 //y=5.02 //x2=5.835 //y2=5.21
cc_165 ( N_noxref_2_c_132_n N_noxref_4_c_427_n ) capacitor c=8.9933e-19 \
 //x=3.33 //y=7.4 //x2=5.525 //y2=5.21
cc_166 ( N_noxref_2_c_132_n N_noxref_4_c_402_n ) capacitor c=0.00155409f \
 //x=3.33 //y=7.4 //x2=5.92 //y2=2.59
cc_167 ( N_noxref_2_c_133_n N_noxref_4_c_402_n ) capacitor c=0.0462858f \
 //x=6.66 //y=7.4 //x2=5.92 //y2=2.59
cc_168 ( N_noxref_2_c_172_p N_noxref_4_c_404_n ) capacitor c=3.97183e-19 \
 //x=8.245 //y=7.4 //x2=7.77 //y2=2.08
cc_169 ( N_noxref_2_c_133_n N_noxref_4_c_404_n ) capacitor c=0.0167437f \
 //x=6.66 //y=7.4 //x2=7.77 //y2=2.08
cc_170 ( N_noxref_2_c_172_p N_noxref_4_M14_noxref_g ) capacitor c=0.00726866f \
 //x=8.245 //y=7.4 //x2=7.67 //y2=6.02
cc_171 ( N_noxref_2_M14_noxref_s N_noxref_4_M14_noxref_g ) capacitor \
 c=0.054195f //x=7.315 //y=5.02 //x2=7.67 //y2=6.02
cc_172 ( N_noxref_2_c_172_p N_noxref_4_M15_noxref_g ) capacitor c=0.00672952f \
 //x=8.245 //y=7.4 //x2=8.11 //y2=6.02
cc_173 ( N_noxref_2_M15_noxref_d N_noxref_4_M15_noxref_g ) capacitor \
 c=0.015318f //x=8.185 //y=5.02 //x2=8.11 //y2=6.02
cc_174 ( N_noxref_2_c_133_n N_noxref_4_c_436_n ) capacitor c=0.0162221f \
 //x=6.66 //y=7.4 //x2=7.77 //y2=4.7
cc_175 ( N_noxref_2_c_133_n N_noxref_4_M12_noxref_d ) capacitor c=0.00966019f \
 //x=6.66 //y=7.4 //x2=5.295 //y2=5.025
cc_176 ( N_noxref_2_M10_noxref_d N_noxref_4_M12_noxref_d ) capacitor \
 c=0.00561178f //x=4.415 //y=5.025 //x2=5.295 //y2=5.025
cc_177 ( N_noxref_2_M14_noxref_s N_noxref_4_M12_noxref_d ) capacitor \
 c=4.37644e-19 //x=7.315 //y=5.02 //x2=5.295 //y2=5.025
cc_178 ( N_noxref_2_c_136_p N_noxref_5_c_531_n ) capacitor c=3.97183e-19 \
 //x=1.585 //y=7.4 //x2=1.11 //y2=2.08
cc_179 ( N_noxref_2_c_131_n N_noxref_5_c_531_n ) capacitor c=0.016845f \
 //x=0.74 //y=7.4 //x2=1.11 //y2=2.08
cc_180 ( N_noxref_2_c_136_p N_noxref_5_M6_noxref_g ) capacitor c=0.00726866f \
 //x=1.585 //y=7.4 //x2=1.01 //y2=6.02
cc_181 ( N_noxref_2_M6_noxref_s N_noxref_5_M6_noxref_g ) capacitor c=0.054195f \
 //x=0.655 //y=5.02 //x2=1.01 //y2=6.02
cc_182 ( N_noxref_2_c_136_p N_noxref_5_M7_noxref_g ) capacitor c=0.00672952f \
 //x=1.585 //y=7.4 //x2=1.45 //y2=6.02
cc_183 ( N_noxref_2_M7_noxref_d N_noxref_5_M7_noxref_g ) capacitor c=0.015318f \
 //x=1.525 //y=5.02 //x2=1.45 //y2=6.02
cc_184 ( N_noxref_2_c_131_n N_noxref_5_c_548_n ) capacitor c=0.0292267f \
 //x=0.74 //y=7.4 //x2=1.11 //y2=4.7
cc_185 ( N_noxref_2_c_131_n N_noxref_6_c_586_n ) capacitor c=6.61004e-19 \
 //x=0.74 //y=7.4 //x2=1.85 //y2=2.08
cc_186 ( N_noxref_2_c_132_n N_noxref_6_c_586_n ) capacitor c=6.09526e-19 \
 //x=3.33 //y=7.4 //x2=1.85 //y2=2.08
cc_187 ( N_noxref_2_c_137_p N_noxref_6_M8_noxref_g ) capacitor c=0.00673971f \
 //x=2.465 //y=7.4 //x2=1.89 //y2=6.02
cc_188 ( N_noxref_2_M7_noxref_d N_noxref_6_M8_noxref_g ) capacitor c=0.015318f \
 //x=1.525 //y=5.02 //x2=1.89 //y2=6.02
cc_189 ( N_noxref_2_c_137_p N_noxref_6_M9_noxref_g ) capacitor c=0.00672952f \
 //x=2.465 //y=7.4 //x2=2.33 //y2=6.02
cc_190 ( N_noxref_2_c_132_n N_noxref_6_M9_noxref_g ) capacitor c=0.00954586f \
 //x=3.33 //y=7.4 //x2=2.33 //y2=6.02
cc_191 ( N_noxref_2_M9_noxref_d N_noxref_6_M9_noxref_g ) capacitor \
 c=0.0430452f //x=2.405 //y=5.02 //x2=2.33 //y2=6.02
cc_192 ( N_noxref_2_c_132_n N_noxref_8_c_701_n ) capacitor c=7.02327e-19 \
 //x=3.33 //y=7.4 //x2=5.18 //y2=2.08
cc_193 ( N_noxref_2_c_133_n N_noxref_8_c_701_n ) capacitor c=6.16704e-19 \
 //x=6.66 //y=7.4 //x2=5.18 //y2=2.08
cc_194 ( N_noxref_2_c_151_p N_noxref_8_M12_noxref_g ) capacitor c=0.00513565f \
 //x=6.49 //y=7.4 //x2=5.22 //y2=6.025
cc_195 ( N_noxref_2_c_151_p N_noxref_8_M13_noxref_g ) capacitor c=0.00512552f \
 //x=6.49 //y=7.4 //x2=5.66 //y2=6.025
cc_196 ( N_noxref_2_c_133_n N_noxref_8_M13_noxref_g ) capacitor c=0.0116195f \
 //x=6.66 //y=7.4 //x2=5.66 //y2=6.025
cc_197 ( N_noxref_2_c_148_p N_noxref_9_c_772_n ) capacitor c=5.81484e-19 \
 //x=4.475 //y=7.4 //x2=4.915 //y2=5.21
cc_198 ( N_noxref_2_c_151_p N_noxref_9_c_772_n ) capacitor c=5.81484e-19 \
 //x=6.49 //y=7.4 //x2=4.915 //y2=5.21
cc_199 ( N_noxref_2_c_133_n N_noxref_9_c_772_n ) capacitor c=0.00289291f \
 //x=6.66 //y=7.4 //x2=4.915 //y2=5.21
cc_200 ( N_noxref_2_M10_noxref_d N_noxref_9_c_772_n ) capacitor c=0.0132432f \
 //x=4.415 //y=5.025 //x2=4.915 //y2=5.21
cc_201 ( N_noxref_2_c_132_n N_noxref_9_c_776_n ) capacitor c=0.0669114f \
 //x=3.33 //y=7.4 //x2=4.205 //y2=5.21
cc_202 ( N_noxref_2_c_134_n N_noxref_9_c_777_n ) capacitor c=0.00359496f \
 //x=9.25 //y=7.4 //x2=5.795 //y2=6.91
cc_203 ( N_noxref_2_c_154_p N_noxref_9_c_778_n ) capacitor c=0.0370274f \
 //x=9.25 //y=7.4 //x2=5.085 //y2=6.91
cc_204 ( N_noxref_2_c_151_p N_noxref_9_c_778_n ) capacitor c=0.0586694f \
 //x=6.49 //y=7.4 //x2=5.085 //y2=6.91
cc_205 ( N_noxref_2_c_134_n N_noxref_9_c_778_n ) capacitor c=0.00118659f \
 //x=9.25 //y=7.4 //x2=5.085 //y2=6.91
cc_206 ( N_noxref_2_c_154_p N_noxref_9_M10_noxref_s ) capacitor c=0.00726388f \
 //x=9.25 //y=7.4 //x2=3.985 //y2=5.025
cc_207 ( N_noxref_2_c_148_p N_noxref_9_M10_noxref_s ) capacitor c=0.0141117f \
 //x=4.475 //y=7.4 //x2=3.985 //y2=5.025
cc_208 ( N_noxref_2_c_134_n N_noxref_9_M10_noxref_s ) capacitor c=0.00138926f \
 //x=9.25 //y=7.4 //x2=3.985 //y2=5.025
cc_209 ( N_noxref_2_M9_noxref_d N_noxref_9_M10_noxref_s ) capacitor \
 c=0.00196306f //x=2.405 //y=5.02 //x2=3.985 //y2=5.025
cc_210 ( N_noxref_2_M10_noxref_d N_noxref_9_M10_noxref_s ) capacitor \
 c=0.0667021f //x=4.415 //y=5.025 //x2=3.985 //y2=5.025
cc_211 ( N_noxref_2_c_132_n N_noxref_9_M11_noxref_d ) capacitor c=8.88629e-19 \
 //x=3.33 //y=7.4 //x2=4.855 //y2=5.025
cc_212 ( N_noxref_2_M10_noxref_d N_noxref_9_M11_noxref_d ) capacitor \
 c=0.0659925f //x=4.415 //y=5.025 //x2=4.855 //y2=5.025
cc_213 ( N_noxref_2_c_133_n N_noxref_9_M13_noxref_d ) capacitor c=0.0520312f \
 //x=6.66 //y=7.4 //x2=5.735 //y2=5.025
cc_214 ( N_noxref_2_M10_noxref_d N_noxref_9_M13_noxref_d ) capacitor \
 c=0.00107819f //x=4.415 //y=5.025 //x2=5.735 //y2=5.025
cc_215 ( N_noxref_2_M14_noxref_s N_noxref_9_M13_noxref_d ) capacitor \
 c=0.00195151f //x=7.315 //y=5.02 //x2=5.735 //y2=5.025
cc_216 ( N_noxref_2_c_133_n N_noxref_10_c_815_n ) capacitor c=6.61004e-19 \
 //x=6.66 //y=7.4 //x2=8.51 //y2=2.08
cc_217 ( N_noxref_2_c_134_n N_noxref_10_c_815_n ) capacitor c=6.09526e-19 \
 //x=9.25 //y=7.4 //x2=8.51 //y2=2.08
cc_218 ( N_noxref_2_c_222_p N_noxref_10_M16_noxref_g ) capacitor c=0.00673971f \
 //x=9.125 //y=7.4 //x2=8.55 //y2=6.02
cc_219 ( N_noxref_2_M15_noxref_d N_noxref_10_M16_noxref_g ) capacitor \
 c=0.015318f //x=8.185 //y=5.02 //x2=8.55 //y2=6.02
cc_220 ( N_noxref_2_c_222_p N_noxref_10_M17_noxref_g ) capacitor c=0.00672952f \
 //x=9.125 //y=7.4 //x2=8.99 //y2=6.02