// File: aoai4x1_pcell.spi.pex
// Created: Tue Oct 15 15:55:12 2024
// Program "Calibre xRC"
// Version "v2023.2_27.15"
// Nominal Temperature: 30C
// Circuit Temperature: 30C
// 
simulator lang=spectre
subckt PM_AOAI4X1_PCELL\%noxref_1 ( 17 21 24 29 40 45 49 57 61 64 73 86 90 110 \
 112 113 114 )
c130 ( 114 0 ) capacitor c=0.0207703f //x=7.65 //y=0.865
c131 ( 113 0 ) capacitor c=0.0699498f //x=3.89 //y=0.365
c132 ( 112 0 ) capacitor c=0.0208404f //x=0.99 //y=0.865
c133 ( 111 0 ) capacitor c=0.00440095f //x=7.84 //y=0
c134 ( 110 0 ) capacitor c=0.10428f //x=6.66 //y=0
c135 ( 90 0 ) capacitor c=0.107062f //x=3.33 //y=0
c136 ( 89 0 ) capacitor c=0.00440095f //x=1.18 //y=0
c137 ( 86 0 ) capacitor c=0.259161f //x=9.25 //y=0
c138 ( 73 0 ) capacitor c=0.0426751f //x=7.755 //y=0
c139 ( 70 0 ) capacitor c=0.0659312f //x=6.05 //y=0
c140 ( 69 0 ) capacitor c=0.0227441f //x=6.49 //y=0
c141 ( 64 0 ) capacitor c=0.00609805f //x=5.965 //y=0.445
c142 ( 61 0 ) capacitor c=0.00508073f //x=5.88 //y=0.53
c143 ( 60 0 ) capacitor c=0.00468234f //x=5.48 //y=0.445
c144 ( 57 0 ) capacitor c=0.00556167f //x=5.395 //y=0.53
c145 ( 52 0 ) capacitor c=0.00468234f //x=4.995 //y=0.445
c146 ( 49 0 ) capacitor c=0.00556167f //x=4.91 //y=0.53
c147 ( 48 0 ) capacitor c=0.00468234f //x=4.51 //y=0.445
c148 ( 45 0 ) capacitor c=0.00692577f //x=4.425 //y=0.53
c149 ( 40 0 ) capacitor c=0.00609805f //x=4.025 //y=0.445
c150 ( 37 0 ) capacitor c=0.0227441f //x=3.94 //y=0
c151 ( 29 0 ) capacitor c=0.0751168f //x=3.16 //y=0
c152 ( 24 0 ) capacitor c=0.179504f //x=0.74 //y=0
c153 ( 21 0 ) capacitor c=0.0426751f //x=1.095 //y=0
c154 ( 17 0 ) capacitor c=0.379168f //x=9.25 //y=0
r155 (  98 99 ) resistor r=14.8796 //w=0.357 //l=0.415 //layer=li \
 //thickness=0.1 //x=5.55 //y=0 //x2=5.965 //y2=0
r156 (  96 98 ) resistor r=2.5098 //w=0.357 //l=0.07 //layer=li \
 //thickness=0.1 //x=5.48 //y=0 //x2=5.55 //y2=0
r157 (  95 96 ) resistor r=17.3894 //w=0.357 //l=0.485 //layer=li \
 //thickness=0.1 //x=4.995 //y=0 //x2=5.48 //y2=0
r158 (  94 95 ) resistor r=17.3894 //w=0.357 //l=0.485 //layer=li \
 //thickness=0.1 //x=4.51 //y=0 //x2=4.995 //y2=0
r159 (  93 94 ) resistor r=2.5098 //w=0.357 //l=0.07 //layer=li \
 //thickness=0.1 //x=4.44 //y=0 //x2=4.51 //y2=0
r160 (  91 93 ) resistor r=14.8796 //w=0.357 //l=0.415 //layer=li \
 //thickness=0.1 //x=4.025 //y=0 //x2=4.44 //y2=0
r161 (  84 86 ) resistor r=39.7983 //w=0.357 //l=1.11 //layer=li \
 //thickness=0.1 //x=8.14 //y=0 //x2=9.25 //y2=0
r162 (  82 111 ) resistor r=2.94794 //w=0.34 //l=0.085 //layer=li \
 //thickness=0.1 //x=7.925 //y=0 //x2=7.84 //y2=0
r163 (  82 84 ) resistor r=7.70868 //w=0.357 //l=0.215 //layer=li \
 //thickness=0.1 //x=7.925 //y=0 //x2=8.14 //y2=0
r164 (  77 111 ) resistor r=4.11603 //w=0.68 //l=0.17 //layer=li \
 //thickness=0.1 //x=7.84 //y=0.17 //x2=7.84 //y2=0
r165 (  77 114 ) resistor r=53.7326 //w=0.187 //l=0.785 //layer=li \
 //thickness=0.1 //x=7.84 //y=0.17 //x2=7.84 //y2=0.955
r166 (  74 110 ) resistor r=5.4201 //w=0.34 //l=0.17 //layer=li \
 //thickness=0.1 //x=6.83 //y=0 //x2=6.66 //y2=0
r167 (  74 76 ) resistor r=7.17087 //w=0.357 //l=0.2 //layer=li \
 //thickness=0.1 //x=6.83 //y=0 //x2=7.03 //y2=0
r168 (  73 111 ) resistor r=2.94794 //w=0.34 //l=0.085 //layer=li \
 //thickness=0.1 //x=7.755 //y=0 //x2=7.84 //y2=0
r169 (  73 76 ) resistor r=25.9944 //w=0.357 //l=0.725 //layer=li \
 //thickness=0.1 //x=7.755 //y=0 //x2=7.03 //y2=0
r170 (  70 99 ) resistor r=3.04762 //w=0.357 //l=0.085 //layer=li \
 //thickness=0.1 //x=6.05 //y=0 //x2=5.965 //y2=0
r171 (  69 110 ) resistor r=5.4201 //w=0.34 //l=0.17 //layer=li \
 //thickness=0.1 //x=6.49 //y=0 //x2=6.66 //y2=0
r172 (  69 70 ) resistor r=15.7759 //w=0.357 //l=0.44 //layer=li \
 //thickness=0.1 //x=6.49 //y=0 //x2=6.05 //y2=0
r173 (  65 113 ) resistor r=5.4201 //w=0.17 //l=0.085 //layer=li \
 //thickness=0.1 //x=5.965 //y=0.615 //x2=5.965 //y2=0.53
r174 (  65 113 ) resistor r=18.139 //w=0.187 //l=0.265 //layer=li \
 //thickness=0.1 //x=5.965 //y=0.615 //x2=5.965 //y2=0.88
r175 (  64 113 ) resistor r=5.4201 //w=0.17 //l=0.085 //layer=li \
 //thickness=0.1 //x=5.965 //y=0.445 //x2=5.965 //y2=0.53
r176 (  63 99 ) resistor r=5.03728 //w=0.34 //l=0.17 //layer=li \
 //thickness=0.1 //x=5.965 //y=0.17 //x2=5.965 //y2=0
r177 (  63 64 ) resistor r=18.8235 //w=0.187 //l=0.275 //layer=li \
 //thickness=0.1 //x=5.965 //y=0.17 //x2=5.965 //y2=0.445
r178 (  62 113 ) resistor r=5.4201 //w=0.17 //l=0.085 //layer=li \
 //thickness=0.1 //x=5.565 //y=0.53 //x2=5.48 //y2=0.53
r179 (  61 113 ) resistor r=1.40859 //w=0.34 //l=0.085 //layer=li \
 //thickness=0.1 //x=5.88 //y=0.53 //x2=5.965 //y2=0.53
r180 (  61 62 ) resistor r=21.5615 //w=0.187 //l=0.315 //layer=li \
 //thickness=0.1 //x=5.88 //y=0.53 //x2=5.565 //y2=0.53
r181 (  60 113 ) resistor r=1.40859 //w=0.34 //l=0.085 //layer=li \
 //thickness=0.1 //x=5.48 //y=0.445 //x2=5.48 //y2=0.53
r182 (  59 96 ) resistor r=5.03728 //w=0.34 //l=0.17 //layer=li \
 //thickness=0.1 //x=5.48 //y=0.17 //x2=5.48 //y2=0
r183 (  59 60 ) resistor r=18.8235 //w=0.187 //l=0.275 //layer=li \
 //thickness=0.1 //x=5.48 //y=0.17 //x2=5.48 //y2=0.445
r184 (  58 113 ) resistor r=6.4 //w=0.17 //l=0.085 //layer=li //thickness=0.1 \
 //x=5.08 //y=0.53 //x2=4.995 //y2=0.53
r185 (  57 113 ) resistor r=5.4201 //w=0.17 //l=0.085 //layer=li \
 //thickness=0.1 //x=5.395 //y=0.53 //x2=5.48 //y2=0.53
r186 (  57 58 ) resistor r=21.5615 //w=0.187 //l=0.315 //layer=li \
 //thickness=0.1 //x=5.395 //y=0.53 //x2=5.08 //y2=0.53
r187 (  53 113 ) resistor r=6.4 //w=0.17 //l=0.085 //layer=li //thickness=0.1 \
 //x=4.995 //y=0.615 //x2=4.995 //y2=0.53
r188 (  53 113 ) resistor r=18.139 //w=0.187 //l=0.265 //layer=li \
 //thickness=0.1 //x=4.995 //y=0.615 //x2=4.995 //y2=0.88
r189 (  52 113 ) resistor r=6.4 //w=0.17 //l=0.085 //layer=li //thickness=0.1 \
 //x=4.995 //y=0.445 //x2=4.995 //y2=0.53
r190 (  51 95 ) resistor r=5.03728 //w=0.34 //l=0.17 //layer=li \
 //thickness=0.1 //x=4.995 //y=0.17 //x2=4.995 //y2=0
r191 (  51 52 ) resistor r=18.8235 //w=0.187 //l=0.275 //layer=li \
 //thickness=0.1 //x=4.995 //y=0.17 //x2=4.995 //y2=0.445
r192 (  50 113 ) resistor r=5.4201 //w=0.17 //l=0.085 //layer=li \
 //thickness=0.1 //x=4.595 //y=0.53 //x2=4.51 //y2=0.53
r193 (  49 113 ) resistor r=6.4 //w=0.17 //l=0.085 //layer=li //thickness=0.1 \
 //x=4.91 //y=0.53 //x2=4.995 //y2=0.53
r194 (  49 50 ) resistor r=21.5615 //w=0.187 //l=0.315 //layer=li \
 //thickness=0.1 //x=4.91 //y=0.53 //x2=4.595 //y2=0.53
r195 (  48 113 ) resistor r=1.40859 //w=0.34 //l=0.085 //layer=li \
 //thickness=0.1 //x=4.51 //y=0.445 //x2=4.51 //y2=0.53
r196 (  47 94 ) resistor r=5.03728 //w=0.34 //l=0.17 //layer=li \
 //thickness=0.1 //x=4.51 //y=0.17 //x2=4.51 //y2=0
r197 (  47 48 ) resistor r=18.8235 //w=0.187 //l=0.275 //layer=li \
 //thickness=0.1 //x=4.51 //y=0.17 //x2=4.51 //y2=0.445
r198 (  46 113 ) resistor r=1.40859 //w=0.34 //l=0.085 //layer=li \
 //thickness=0.1 //x=4.11 //y=0.53 //x2=4.025 //y2=0.53
r199 (  45 113 ) resistor r=5.4201 //w=0.17 //l=0.085 //layer=li \
 //thickness=0.1 //x=4.425 //y=0.53 //x2=4.51 //y2=0.53
r200 (  45 46 ) resistor r=21.5615 //w=0.187 //l=0.315 //layer=li \
 //thickness=0.1 //x=4.425 //y=0.53 //x2=4.11 //y2=0.53
r201 (  41 113 ) resistor r=5.4201 //w=0.17 //l=0.085 //layer=li \
 //thickness=0.1 //x=4.025 //y=0.615 //x2=4.025 //y2=0.53
r202 (  41 113 ) resistor r=41.4118 //w=0.187 //l=0.605 //layer=li \
 //thickness=0.1 //x=4.025 //y=0.615 //x2=4.025 //y2=1.22
r203 (  40 113 ) resistor r=5.4201 //w=0.17 //l=0.085 //layer=li \
 //thickness=0.1 //x=4.025 //y=0.445 //x2=4.025 //y2=0.53
r204 (  39 91 ) resistor r=5.03728 //w=0.34 //l=0.17 //layer=li \
 //thickness=0.1 //x=4.025 //y=0.17 //x2=4.025 //y2=0
r205 (  39 40 ) resistor r=18.8235 //w=0.187 //l=0.275 //layer=li \
 //thickness=0.1 //x=4.025 //y=0.17 //x2=4.025 //y2=0.445
r206 (  38 90 ) resistor r=5.4201 //w=0.34 //l=0.17 //layer=li //thickness=0.1 \
 //x=3.5 //y=0 //x2=3.33 //y2=0
r207 (  37 91 ) resistor r=3.04762 //w=0.357 //l=0.085 //layer=li \
 //thickness=0.1 //x=3.94 //y=0 //x2=4.025 //y2=0
r208 (  37 38 ) resistor r=15.7759 //w=0.357 //l=0.44 //layer=li \
 //thickness=0.1 //x=3.94 //y=0 //x2=3.5 //y2=0
r209 (  32 34 ) resistor r=39.7983 //w=0.357 //l=1.11 //layer=li \
 //thickness=0.1 //x=1.85 //y=0 //x2=2.96 //y2=0
r210 (  30 89 ) resistor r=2.94794 //w=0.34 //l=0.085 //layer=li \
 //thickness=0.1 //x=1.265 //y=0 //x2=1.18 //y2=0
r211 (  30 32 ) resistor r=20.9748 //w=0.357 //l=0.585 //layer=li \
 //thickness=0.1 //x=1.265 //y=0 //x2=1.85 //y2=0
r212 (  29 90 ) resistor r=5.4201 //w=0.34 //l=0.17 //layer=li //thickness=0.1 \
 //x=3.16 //y=0 //x2=3.33 //y2=0
r213 (  29 34 ) resistor r=7.17087 //w=0.357 //l=0.2 //layer=li \
 //thickness=0.1 //x=3.16 //y=0 //x2=2.96 //y2=0
r214 (  25 89 ) resistor r=4.11603 //w=0.68 //l=0.17 //layer=li \
 //thickness=0.1 //x=1.18 //y=0.17 //x2=1.18 //y2=0
r215 (  25 112 ) resistor r=53.7326 //w=0.187 //l=0.785 //layer=li \
 //thickness=0.1 //x=1.18 //y=0.17 //x2=1.18 //y2=0.955
r216 (  21 89 ) resistor r=2.94794 //w=0.34 //l=0.085 //layer=li \
 //thickness=0.1 //x=1.095 //y=0 //x2=1.18 //y2=0
r217 (  21 24 ) resistor r=12.7283 //w=0.357 //l=0.355 //layer=li \
 //thickness=0.1 //x=1.095 //y=0 //x2=0.74 //y2=0
r218 (  17 86 ) resistor r=3.1 //w=0.17 //l=0.51 //layer=mcon //count=3 \
 //x=9.25 //y=0 //x2=9.25 //y2=0
r219 (  15 84 ) resistor r=3.1 //w=0.17 //l=0.51 //layer=mcon //count=3 \
 //x=8.14 //y=0 //x2=8.14 //y2=0
r220 (  15 17 ) resistor r=0.460963 //w=0.301 //l=1.11 //layer=m1 \
 //thickness=0.36 //x=8.14 //y=0 //x2=9.25 //y2=0
r221 (  13 76 ) resistor r=3.1 //w=0.17 //l=0.51 //layer=mcon //count=3 \
 //x=7.03 //y=0 //x2=7.03 //y2=0
r222 (  13 15 ) resistor r=0.460963 //w=0.301 //l=1.11 //layer=m1 \
 //thickness=0.36 //x=7.03 //y=0 //x2=8.14 //y2=0
r223 (  11 98 ) resistor r=3.1 //w=0.17 //l=0.51 //layer=mcon //count=3 \
 //x=5.55 //y=0 //x2=5.55 //y2=0
r224 (  11 13 ) resistor r=0.614618 //w=0.301 //l=1.48 //layer=m1 \
 //thickness=0.36 //x=5.55 //y=0 //x2=7.03 //y2=0
r225 (  9 93 ) resistor r=3.1 //w=0.17 //l=0.51 //layer=mcon //count=3 \
 //x=4.44 //y=0 //x2=4.44 //y2=0
r226 (  9 11 ) resistor r=0.460963 //w=0.301 //l=1.11 //layer=m1 \
 //thickness=0.36 //x=4.44 //y=0 //x2=5.55 //y2=0
r227 (  7 34 ) resistor r=3.1 //w=0.17 //l=0.51 //layer=mcon //count=3 \
 //x=2.96 //y=0 //x2=2.96 //y2=0
r228 (  7 9 ) resistor r=0.614618 //w=0.301 //l=1.48 //layer=m1 \
 //thickness=0.36 //x=2.96 //y=0 //x2=4.44 //y2=0
r229 (  5 32 ) resistor r=3.1 //w=0.17 //l=0.51 //layer=mcon //count=3 \
 //x=1.85 //y=0 //x2=1.85 //y2=0
r230 (  5 7 ) resistor r=0.460963 //w=0.301 //l=1.11 //layer=m1 \
 //thickness=0.36 //x=1.85 //y=0 //x2=2.96 //y2=0
r231 (  2 24 ) resistor r=3.1 //w=0.17 //l=0.51 //layer=mcon //count=3 \
 //x=0.74 //y=0 //x2=0.74 //y2=0
r232 (  2 5 ) resistor r=0.460963 //w=0.301 //l=1.11 //layer=m1 \
 //thickness=0.36 //x=0.74 //y=0 //x2=1.85 //y2=0
ends PM_AOAI4X1_PCELL\%noxref_1

subckt PM_AOAI4X1_PCELL\%noxref_2 ( 17 29 37 53 63 79 89 102 105 107 111 112 \
 113 114 115 116 117 118 )
c115 ( 118 0 ) capacitor c=0.0383753f //x=9.065 //y=5.02
c116 ( 117 0 ) capacitor c=0.0243052f //x=8.185 //y=5.02
c117 ( 116 0 ) capacitor c=0.053196f //x=7.315 //y=5.02
c118 ( 115 0 ) capacitor c=0.0256796f //x=4.415 //y=5.025
c119 ( 114 0 ) capacitor c=0.0383753f //x=2.405 //y=5.02
c120 ( 113 0 ) capacitor c=0.0243052f //x=1.525 //y=5.02
c121 ( 112 0 ) capacitor c=0.053196f //x=0.655 //y=5.02
c122 ( 111 0 ) capacitor c=0.243792f //x=9.25 //y=7.4
c123 ( 109 0 ) capacitor c=0.00591168f //x=8.33 //y=7.4
c124 ( 108 0 ) capacitor c=0.00591168f //x=7.45 //y=7.4
c125 ( 107 0 ) capacitor c=0.119284f //x=6.66 //y=7.4
c126 ( 106 0 ) capacitor c=0.00591168f //x=4.56 //y=7.4
c127 ( 105 0 ) capacitor c=0.116004f //x=3.33 //y=7.4
c128 ( 104 0 ) capacitor c=0.00591168f //x=2.55 //y=7.4
c129 ( 103 0 ) capacitor c=0.00591168f //x=1.67 //y=7.4
c130 ( 102 0 ) capacitor c=0.24846f //x=0.74 //y=7.4
c131 ( 89 0 ) capacitor c=0.0285035f //x=9.125 //y=7.4
c132 ( 79 0 ) capacitor c=0.0286367f //x=8.245 //y=7.4
c133 ( 69 0 ) capacitor c=0.0281468f //x=7.365 //y=7.4
c134 ( 63 0 ) capacitor c=0.0778183f //x=6.49 //y=7.4
c135 ( 53 0 ) capacitor c=0.0465804f //x=4.475 //y=7.4
c136 ( 47 0 ) capacitor c=0.0275781f //x=3.16 //y=7.4
c137 ( 37 0 ) capacitor c=0.0285035f //x=2.465 //y=7.4
c138 ( 29 0 ) capacitor c=0.0286367f //x=1.585 //y=7.4
c139 ( 17 0 ) capacitor c=0.396128f //x=9.25 //y=7.4
r140 (  91 111 ) resistor r=4.11603 //w=0.68 //l=0.17 //layer=li \
 //thickness=0.1 //x=9.21 //y=7.23 //x2=9.21 //y2=7.4
r141 (  91 118 ) resistor r=33.1979 //w=0.187 //l=0.485 //layer=li \
 //thickness=0.1 //x=9.21 //y=7.23 //x2=9.21 //y2=6.745
r142 (  90 109 ) resistor r=2.94794 //w=0.34 //l=0.085 //layer=li \
 //thickness=0.1 //x=8.415 //y=7.4 //x2=8.33 //y2=7.4
r143 (  89 111 ) resistor r=2.94794 //w=0.34 //l=0.085 //layer=li \
 //thickness=0.1 //x=9.125 //y=7.4 //x2=9.21 //y2=7.4
r144 (  89 90 ) resistor r=25.4566 //w=0.357 //l=0.71 //layer=li \
 //thickness=0.1 //x=9.125 //y=7.4 //x2=8.415 //y2=7.4
r145 (  83 109 ) resistor r=4.11603 //w=0.68 //l=0.17 //layer=li \
 //thickness=0.1 //x=8.33 //y=7.23 //x2=8.33 //y2=7.4
r146 (  83 117 ) resistor r=33.1979 //w=0.187 //l=0.485 //layer=li \
 //thickness=0.1 //x=8.33 //y=7.23 //x2=8.33 //y2=6.745
r147 (  80 108 ) resistor r=2.94794 //w=0.34 //l=0.085 //layer=li \
 //thickness=0.1 //x=7.535 //y=7.4 //x2=7.45 //y2=7.4
r148 (  80 82 ) resistor r=21.6919 //w=0.357 //l=0.605 //layer=li \
 //thickness=0.1 //x=7.535 //y=7.4 //x2=8.14 //y2=7.4
r149 (  79 109 ) resistor r=2.94794 //w=0.34 //l=0.085 //layer=li \
 //thickness=0.1 //x=8.245 //y=7.4 //x2=8.33 //y2=7.4
r150 (  79 82 ) resistor r=3.76471 //w=0.357 //l=0.105 //layer=li \
 //thickness=0.1 //x=8.245 //y=7.4 //x2=8.14 //y2=7.4
r151 (  73 108 ) resistor r=4.11603 //w=0.68 //l=0.17 //layer=li \
 //thickness=0.1 //x=7.45 //y=7.23 //x2=7.45 //y2=7.4
r152 (  73 116 ) resistor r=56.4706 //w=0.187 //l=0.825 //layer=li \
 //thickness=0.1 //x=7.45 //y=7.23 //x2=7.45 //y2=6.405
r153 (  70 107 ) resistor r=5.4201 //w=0.34 //l=0.17 //layer=li \
 //thickness=0.1 //x=6.83 //y=7.4 //x2=6.66 //y2=7.4
r154 (  70 72 ) resistor r=7.17087 //w=0.357 //l=0.2 //layer=li \
 //thickness=0.1 //x=6.83 //y=7.4 //x2=7.03 //y2=7.4
r155 (  69 108 ) resistor r=2.94794 //w=0.34 //l=0.085 //layer=li \
 //thickness=0.1 //x=7.365 //y=7.4 //x2=7.45 //y2=7.4
r156 (  69 72 ) resistor r=12.0112 //w=0.357 //l=0.335 //layer=li \
 //thickness=0.1 //x=7.365 //y=7.4 //x2=7.03 //y2=7.4
r157 (  64 106 ) resistor r=2.94794 //w=0.34 //l=0.085 //layer=li \
 //thickness=0.1 //x=4.645 //y=7.4 //x2=4.56 //y2=7.4
r158 (  64 66 ) resistor r=32.4482 //w=0.357 //l=0.905 //layer=li \
 //thickness=0.1 //x=4.645 //y=7.4 //x2=5.55 //y2=7.4
r159 (  63 107 ) resistor r=5.4201 //w=0.34 //l=0.17 //layer=li \
 //thickness=0.1 //x=6.49 //y=7.4 //x2=6.66 //y2=7.4
r160 (  63 66 ) resistor r=33.7031 //w=0.357 //l=0.94 //layer=li \
 //thickness=0.1 //x=6.49 //y=7.4 //x2=5.55 //y2=7.4
r161 (  57 106 ) resistor r=4.11603 //w=0.68 //l=0.17 //layer=li \
 //thickness=0.1 //x=4.56 //y=7.23 //x2=4.56 //y2=7.4
r162 (  57 115 ) resistor r=33.5401 //w=0.187 //l=0.49 //layer=li \
 //thickness=0.1 //x=4.56 //y=7.23 //x2=4.56 //y2=6.74
r163 (  54 105 ) resistor r=5.4201 //w=0.34 //l=0.17 //layer=li \
 //thickness=0.1 //x=3.5 //y=7.4 //x2=3.33 //y2=7.4
r164 (  54 56 ) resistor r=33.7031 //w=0.357 //l=0.94 //layer=li \
 //thickness=0.1 //x=3.5 //y=7.4 //x2=4.44 //y2=7.4
r165 (  53 106 ) resistor r=2.94794 //w=0.34 //l=0.085 //layer=li \
 //thickness=0.1 //x=4.475 //y=7.4 //x2=4.56 //y2=7.4
r166 (  53 56 ) resistor r=1.2549 //w=0.357 //l=0.035 //layer=li \
 //thickness=0.1 //x=4.475 //y=7.4 //x2=4.44 //y2=7.4
r167 (  48 104 ) resistor r=2.94794 //w=0.34 //l=0.085 //layer=li \
 //thickness=0.1 //x=2.635 //y=7.4 //x2=2.55 //y2=7.4
r168 (  48 50 ) resistor r=11.6527 //w=0.357 //l=0.325 //layer=li \
 //thickness=0.1 //x=2.635 //y=7.4 //x2=2.96 //y2=7.4
r169 (  47 105 ) resistor r=5.4201 //w=0.34 //l=0.17 //layer=li \
 //thickness=0.1 //x=3.16 //y=7.4 //x2=3.33 //y2=7.4
r170 (  47 50 ) resistor r=7.17087 //w=0.357 //l=0.2 //layer=li \
 //thickness=0.1 //x=3.16 //y=7.4 //x2=2.96 //y2=7.4
r171 (  41 104 ) resistor r=4.11603 //w=0.68 //l=0.17 //layer=li \
 //thickness=0.1 //x=2.55 //y=7.23 //x2=2.55 //y2=7.4
r172 (  41 114 ) resistor r=33.1979 //w=0.187 //l=0.485 //layer=li \
 //thickness=0.1 //x=2.55 //y=7.23 //x2=2.55 //y2=6.745
r173 (  38 103 ) resistor r=2.94794 //w=0.34 //l=0.085 //layer=li \
 //thickness=0.1 //x=1.755 //y=7.4 //x2=1.67 //y2=7.4
r174 (  38 40 ) resistor r=3.40616 //w=0.357 //l=0.095 //layer=li \
 //thickness=0.1 //x=1.755 //y=7.4 //x2=1.85 //y2=7.4
r175 (  37 104 ) resistor r=2.94794 //w=0.34 //l=0.085 //layer=li \
 //thickness=0.1 //x=2.465 //y=7.4 //x2=2.55 //y2=7.4
r176 (  37 40 ) resistor r=22.0504 //w=0.357 //l=0.615 //layer=li \
 //thickness=0.1 //x=2.465 //y=7.4 //x2=1.85 //y2=7.4
r177 (  31 103 ) resistor r=4.11603 //w=0.68 //l=0.17 //layer=li \
 //thickness=0.1 //x=1.67 //y=7.23 //x2=1.67 //y2=7.4
r178 (  31 113 ) resistor r=33.1979 //w=0.187 //l=0.485 //layer=li \
 //thickness=0.1 //x=1.67 //y=7.23 //x2=1.67 //y2=6.745
r179 (  30 102 ) resistor r=2.94794 //w=0.34 //l=0.085 //layer=li \
 //thickness=0.1 //x=0.875 //y=7.4 //x2=0.79 //y2=7.4
r180 (  29 103 ) resistor r=2.94794 //w=0.34 //l=0.085 //layer=li \
 //thickness=0.1 //x=1.585 //y=7.4 //x2=1.67 //y2=7.4
r181 (  29 30 ) resistor r=25.4566 //w=0.357 //l=0.71 //layer=li \
 //thickness=0.1 //x=1.585 //y=7.4 //x2=0.875 //y2=7.4
r182 (  23 102 ) resistor r=4.11603 //w=0.68 //l=0.17 //layer=li \
 //thickness=0.1 //x=0.79 //y=7.23 //x2=0.79 //y2=7.4
r183 (  23 112 ) resistor r=56.4706 //w=0.187 //l=0.825 //layer=li \
 //thickness=0.1 //x=0.79 //y=7.23 //x2=0.79 //y2=6.405
r184 (  17 111 ) resistor r=3.1 //w=0.17 //l=0.51 //layer=mcon //count=3 \
 //x=9.25 //y=7.4 //x2=9.25 //y2=7.4
r185 (  15 82 ) resistor r=3.1 //w=0.17 //l=0.51 //layer=mcon //count=3 \
 //x=8.14 //y=7.4 //x2=8.14 //y2=7.4
r186 (  15 17 ) resistor r=0.460963 //w=0.301 //l=1.11 //layer=m1 \
 //thickness=0.36 //x=8.14 //y=7.4 //x2=9.25 //y2=7.4
r187 (  13 72 ) resistor r=3.1 //w=0.17 //l=0.51 //layer=mcon //count=3 \
 //x=7.03 //y=7.4 //x2=7.03 //y2=7.4
r188 (  13 15 ) resistor r=0.460963 //w=0.301 //l=1.11 //layer=m1 \
 //thickness=0.36 //x=7.03 //y=7.4 //x2=8.14 //y2=7.4
r189 (  11 66 ) resistor r=3.1 //w=0.17 //l=0.51 //layer=mcon //count=3 \
 //x=5.55 //y=7.4 //x2=5.55 //y2=7.4
r190 (  11 13 ) resistor r=0.614618 //w=0.301 //l=1.48 //layer=m1 \
 //thickness=0.36 //x=5.55 //y=7.4 //x2=7.03 //y2=7.4
r191 (  9 56 ) resistor r=3.1 //w=0.17 //l=0.51 //layer=mcon //count=3 \
 //x=4.44 //y=7.4 //x2=4.44 //y2=7.4
r192 (  9 11 ) resistor r=0.460963 //w=0.301 //l=1.11 //layer=m1 \
 //thickness=0.36 //x=4.44 //y=7.4 //x2=5.55 //y2=7.4
r193 (  7 50 ) resistor r=3.1 //w=0.17 //l=0.51 //layer=mcon //count=3 \
 //x=2.96 //y=7.4 //x2=2.96 //y2=7.4
r194 (  7 9 ) resistor r=0.614618 //w=0.301 //l=1.48 //layer=m1 \
 //thickness=0.36 //x=2.96 //y=7.4 //x2=4.44 //y2=7.4
r195 (  5 40 ) resistor r=3.1 //w=0.17 //l=0.51 //layer=mcon //count=3 \
 //x=1.85 //y=7.4 //x2=1.85 //y2=7.4
r196 (  5 7 ) resistor r=0.460963 //w=0.301 //l=1.11 //layer=m1 \
 //thickness=0.36 //x=1.85 //y=7.4 //x2=2.96 //y2=7.4
r197 (  2 102 ) resistor r=3.1 //w=0.17 //l=0.51 //layer=mcon //count=3 \
 //x=0.74 //y=7.4 //x2=0.74 //y2=7.4
r198 (  2 5 ) resistor r=0.460963 //w=0.301 //l=1.11 //layer=m1 \
 //thickness=0.36 //x=0.74 //y=7.4 //x2=1.85 //y2=7.4
ends PM_AOAI4X1_PCELL\%noxref_2

subckt PM_AOAI4X1_PCELL\%noxref_3 ( 1 2 13 14 25 27 28 32 35 39 41 43 44 45 46 \
 47 48 49 53 55 58 60 61 66 76 78 79 )
c144 ( 79 0 ) capacitor c=0.0220291f //x=1.965 //y=5.02
c145 ( 78 0 ) capacitor c=0.0217503f //x=1.085 //y=5.02
c146 ( 76 0 ) capacitor c=0.00865153f //x=1.96 //y=0.905
c147 ( 66 0 ) capacitor c=0.04214f //x=4.285 //y=4.705
c148 ( 61 0 ) capacitor c=0.0321911f //x=4.775 //y=1.25
c149 ( 60 0 ) capacitor c=0.0185201f //x=4.775 //y=0.905
c150 ( 58 0 ) capacitor c=0.0344254f //x=4.705 //y=4.795
c151 ( 55 0 ) capacitor c=0.0133656f //x=4.62 //y=1.405
c152 ( 53 0 ) capacitor c=0.0157804f //x=4.62 //y=0.75
c153 ( 49 0 ) capacitor c=0.0785055f //x=4.245 //y=1.915
c154 ( 48 0 ) capacitor c=0.022867f //x=4.245 //y=1.56
c155 ( 47 0 ) capacitor c=0.0234318f //x=4.245 //y=1.25
c156 ( 46 0 ) capacitor c=0.0192004f //x=4.245 //y=0.905
c157 ( 45 0 ) capacitor c=0.110795f //x=4.78 //y=6.025
c158 ( 44 0 ) capacitor c=0.153847f //x=4.34 //y=6.025
c159 ( 41 0 ) capacitor c=0.00995068f //x=4.285 //y=4.705
c160 ( 39 0 ) capacitor c=0.00427536f //x=2.11 //y=5.2
c161 ( 35 0 ) capacitor c=0.0968481f //x=4.44 //y=2.08
c162 ( 32 0 ) capacitor c=0.117241f //x=2.59 //y=2.59
c163 ( 28 0 ) capacitor c=0.00781917f //x=2.235 //y=1.655
c164 ( 27 0 ) capacitor c=0.0159132f //x=2.505 //y=1.655
c165 ( 25 0 ) capacitor c=0.017841f //x=2.505 //y=5.2
c166 ( 14 0 ) capacitor c=0.00387264f //x=1.315 //y=5.2
c167 ( 13 0 ) capacitor c=0.0222171f //x=2.025 //y=5.2
c168 ( 2 0 ) capacitor c=0.0173935f //x=2.705 //y=2.59
c169 ( 1 0 ) capacitor c=0.111807f //x=4.325 //y=2.59
r170 (  68 69 ) resistor r=32.4568 //w=0.214 //l=0.075 //layer=ply \
 //thickness=0.18 //x=4.285 //y=4.795 //x2=4.285 //y2=4.87
r171 (  66 68 ) resistor r=20.271 //w=0.214 //l=0.09 //layer=ply \
 //thickness=0.18 //x=4.285 //y=4.705 //x2=4.285 //y2=4.795
r172 (  61 75 ) resistor r=45.1352 //w=0.168 //l=0.173853 //layer=ply \
 //thickness=0.18 //x=4.775 //y=1.25 //x2=4.735 //y2=1.405
r173 (  60 74 ) resistor r=45.1352 //w=0.168 //l=0.173853 //layer=ply \
 //thickness=0.18 //x=4.775 //y=0.905 //x2=4.735 //y2=0.75
r174 (  60 61 ) resistor r=176.904 //w=0.094 //l=0.345 //layer=ply \
 //thickness=0.18 //x=4.775 //y=0.905 //x2=4.775 //y2=1.25
r175 (  59 68 ) resistor r=16.5046 //w=0.27 //l=0.135 //layer=ply \
 //thickness=0.18 //x=4.42 //y=4.795 //x2=4.285 //y2=4.795
r176 (  58 62 ) resistor r=26.9307 //w=0.15 //l=0.106066 //layer=ply \
 //thickness=0.18 //x=4.705 //y=4.795 //x2=4.78 //y2=4.87
r177 (  58 59 ) resistor r=146.138 //w=0.094 //l=0.285 //layer=ply \
 //thickness=0.18 //x=4.705 //y=4.795 //x2=4.42 //y2=4.795
r178 (  56 73 ) resistor r=10.701 //w=0.21 //l=0.115 //layer=ply \
 //thickness=0.18 //x=4.4 //y=1.405 //x2=4.285 //y2=1.405
r179 (  55 75 ) resistor r=5.52526 //w=0.168 //l=0.115 //layer=ply \
 //thickness=0.18 //x=4.62 //y=1.405 //x2=4.735 //y2=1.405
r180 (  54 72 ) resistor r=5.52526 //w=0.168 //l=0.115 //layer=ply \
 //thickness=0.18 //x=4.4 //y=0.75 //x2=4.285 //y2=0.75
r181 (  53 74 ) resistor r=5.52526 //w=0.168 //l=0.115 //layer=ply \
 //thickness=0.18 //x=4.62 //y=0.75 //x2=4.735 //y2=0.75
r182 (  53 54 ) resistor r=112.809 //w=0.094 //l=0.22 //layer=ply \
 //thickness=0.18 //x=4.62 //y=0.75 //x2=4.4 //y2=0.75
r183 (  49 71 ) resistor r=34.8111 //w=0.27 //l=0.264953 //layer=ply \
 //thickness=0.18 //x=4.245 //y=1.915 //x2=4.44 //y2=2.08
r184 (  48 73 ) resistor r=39.5823 //w=0.21 //l=0.173853 //layer=ply \
 //thickness=0.18 //x=4.245 //y=1.56 //x2=4.285 //y2=1.405
r185 (  48 49 ) resistor r=182.032 //w=0.094 //l=0.355 //layer=ply \
 //thickness=0.18 //x=4.245 //y=1.56 //x2=4.245 //y2=1.915
r186 (  47 73 ) resistor r=39.5823 //w=0.21 //l=0.173853 //layer=ply \
 //thickness=0.18 //x=4.245 //y=1.25 //x2=4.285 //y2=1.405
r187 (  46 72 ) resistor r=45.1352 //w=0.168 //l=0.173853 //layer=ply \
 //thickness=0.18 //x=4.245 //y=0.905 //x2=4.285 //y2=0.75
r188 (  46 47 ) resistor r=176.904 //w=0.094 //l=0.345 //layer=ply \
 //thickness=0.18 //x=4.245 //y=0.905 //x2=4.245 //y2=1.25
r189 (  45 62 ) resistor r=592.245 //w=0.094 //l=1.155 //layer=ply \
 //thickness=0.18 //x=4.78 //y=6.025 //x2=4.78 //y2=4.87
r190 (  44 69 ) resistor r=592.245 //w=0.094 //l=1.155 //layer=ply \
 //thickness=0.18 //x=4.34 //y=6.025 //x2=4.34 //y2=4.87
r191 (  43 55 ) resistor r=56.4043 //w=0.094 //l=0.11 //layer=ply \
 //thickness=0.18 //x=4.51 //y=1.405 //x2=4.62 //y2=1.405
r192 (  43 56 ) resistor r=56.4043 //w=0.094 //l=0.11 //layer=ply \
 //thickness=0.18 //x=4.51 //y=1.405 //x2=4.4 //y2=1.405
r193 (  41 66 ) resistor r=152 //w=0.17 //l=0.17 //layer=licon //count=1 \
 //x=4.285 //y=4.705 //x2=4.285 //y2=4.705
r194 (  41 42 ) resistor r=7.81102 //w=0.254 //l=0.155 //layer=li \
 //thickness=0.1 //x=4.285 //y=4.705 //x2=4.44 //y2=4.705
r195 (  35 71 ) resistor r=152 //w=0.17 //l=0.17 //layer=licon //count=1 \
 //x=4.44 //y=2.08 //x2=4.44 //y2=2.08
r196 (  35 38 ) resistor r=34.9091 //w=0.187 //l=0.51 //layer=li \
 //thickness=0.1 //x=4.44 //y=2.08 //x2=4.44 //y2=2.59
r197 (  33 42 ) resistor r=3.23951 //w=0.254 //l=0.165 //layer=li \
 //thickness=0.1 //x=4.44 //y=4.54 //x2=4.44 //y2=4.705
r198 (  33 38 ) resistor r=133.476 //w=0.187 //l=1.95 //layer=li \
 //thickness=0.1 //x=4.44 //y=4.54 //x2=4.44 //y2=2.59
r199 (  30 32 ) resistor r=172.834 //w=0.187 //l=2.525 //layer=li \
 //thickness=0.1 //x=2.59 //y=5.115 //x2=2.59 //y2=2.59
r200 (  29 32 ) resistor r=58.1818 //w=0.187 //l=0.85 //layer=li \
 //thickness=0.1 //x=2.59 //y=1.74 //x2=2.59 //y2=2.59
r201 (  27 29 ) resistor r=7.15173 //w=0.17 //l=0.120208 //layer=li \
 //thickness=0.1 //x=2.505 //y=1.655 //x2=2.59 //y2=1.74
r202 (  27 28 ) resistor r=18.4813 //w=0.187 //l=0.27 //layer=li \
 //thickness=0.1 //x=2.505 //y=1.655 //x2=2.235 //y2=1.655
r203 (  26 39 ) resistor r=5.4201 //w=0.17 //l=0.085 //layer=li \
 //thickness=0.1 //x=2.195 //y=5.2 //x2=2.11 //y2=5.2
r204 (  25 30 ) resistor r=7.15173 //w=0.17 //l=0.120208 //layer=li \
 //thickness=0.1 //x=2.505 //y=5.2 //x2=2.59 //y2=5.115
r205 (  25 26 ) resistor r=21.2193 //w=0.187 //l=0.31 //layer=li \
 //thickness=0.1 //x=2.505 //y=5.2 //x2=2.195 //y2=5.2
r206 (  21 28 ) resistor r=7.15173 //w=0.17 //l=0.120208 //layer=li \
 //thickness=0.1 //x=2.15 //y=1.57 //x2=2.235 //y2=1.655
r207 (  21 76 ) resistor r=39.016 //w=0.187 //l=0.57 //layer=li \
 //thickness=0.1 //x=2.15 //y=1.57 //x2=2.15 //y2=1
r208 (  15 39 ) resistor r=1.40859 //w=0.34 //l=0.085 //layer=li \
 //thickness=0.1 //x=2.11 //y=5.285 //x2=2.11 //y2=5.2
r209 (  15 79 ) resistor r=30.1176 //w=0.187 //l=0.44 //layer=li \
 //thickness=0.1 //x=2.11 //y=5.285 //x2=2.11 //y2=5.725
r210 (  13 39 ) resistor r=5.4201 //w=0.17 //l=0.085 //layer=li \
 //thickness=0.1 //x=2.025 //y=5.2 //x2=2.11 //y2=5.2
r211 (  13 14 ) resistor r=48.5989 //w=0.187 //l=0.71 //layer=li \
 //thickness=0.1 //x=2.025 //y=5.2 //x2=1.315 //y2=5.2
r212 (  7 14 ) resistor r=7.15173 //w=0.17 //l=0.120208 //layer=li \
 //thickness=0.1 //x=1.23 //y=5.285 //x2=1.315 //y2=5.2
r213 (  7 78 ) resistor r=30.1176 //w=0.187 //l=0.44 //layer=li \
 //thickness=0.1 //x=1.23 //y=5.285 //x2=1.23 //y2=5.725
r214 (  6 38 ) resistor r=9.3 //w=0.17 //l=0.17 //layer=mcon //count=1 \
 //x=4.44 //y=2.59 //x2=4.44 //y2=2.59
r215 (  4 32 ) resistor r=9.3 //w=0.17 //l=0.17 //layer=mcon //count=1 \
 //x=2.59 //y=2.59 //x2=2.59 //y2=2.59
r216 (  2 4 ) resistor r=0.0717383 //w=0.224 //l=0.115 //layer=m1 \
 //thickness=0.36 //x=2.705 //y=2.59 //x2=2.59 //y2=2.59
r217 (  1 6 ) resistor r=0.0717383 //w=0.224 //l=0.115 //layer=m1 \
 //thickness=0.36 //x=4.325 //y=2.59 //x2=4.44 //y2=2.59
r218 (  1 2 ) resistor r=1.5458 //w=0.131 //l=1.62 //layer=m1 //thickness=0.36 \
 //x=4.325 //y=2.59 //x2=2.705 //y2=2.59
ends PM_AOAI4X1_PCELL\%noxref_3

subckt PM_AOAI4X1_PCELL\%noxref_4 ( 1 2 11 12 23 24 25 30 32 40 41 42 43 44 45 \
 46 50 52 55 56 66 69 70 73 )
c141 ( 73 0 ) capacitor c=0.0159573f //x=5.295 //y=5.025
c142 ( 70 0 ) capacitor c=0.00925154f //x=5.29 //y=0.905
c143 ( 69 0 ) capacitor c=0.007684f //x=4.32 //y=0.905
c144 ( 66 0 ) capacitor c=0.0667949f //x=7.77 //y=4.7
c145 ( 56 0 ) capacitor c=0.0318948f //x=8.105 //y=1.21
c146 ( 55 0 ) capacitor c=0.0187384f //x=8.105 //y=0.865
c147 ( 52 0 ) capacitor c=0.0141798f //x=7.95 //y=1.365
c148 ( 50 0 ) capacitor c=0.0149844f //x=7.95 //y=0.71
c149 ( 46 0 ) capacitor c=0.0816272f //x=7.575 //y=1.915
c150 ( 45 0 ) capacitor c=0.0229531f //x=7.575 //y=1.52
c151 ( 44 0 ) capacitor c=0.0234352f //x=7.575 //y=1.21
c152 ( 43 0 ) capacitor c=0.0199343f //x=7.575 //y=0.865
c153 ( 42 0 ) capacitor c=0.110275f //x=8.11 //y=6.02
c154 ( 41 0 ) capacitor c=0.154305f //x=7.67 //y=6.02
c155 ( 39 0 ) capacitor c=0.00710337f //x=5.48 //y=1.655
c156 ( 32 0 ) capacitor c=0.100655f //x=7.77 //y=2.08
c157 ( 30 0 ) capacitor c=0.117944f //x=5.92 //y=2.59
c158 ( 25 0 ) capacitor c=0.0160526f //x=5.835 //y=1.655
c159 ( 24 0 ) capacitor c=0.00499395f //x=5.525 //y=5.21
c160 ( 23 0 ) capacitor c=0.0164583f //x=5.835 //y=5.21
c161 ( 12 0 ) capacitor c=0.00220849f //x=4.595 //y=1.655
c162 ( 11 0 ) capacitor c=0.0280953f //x=5.395 //y=1.655
c163 ( 2 0 ) capacitor c=0.0120303f //x=6.035 //y=2.59
c164 ( 1 0 ) capacitor c=0.117815f //x=7.655 //y=2.59
r165 (  64 66 ) resistor r=20.6867 //w=0.233 //l=0.1 //layer=ply \
 //thickness=0.18 //x=7.67 //y=4.7 //x2=7.77 //y2=4.7
r166 (  57 66 ) resistor r=70.3348 //w=0.233 //l=0.414367 //layer=ply \
 //thickness=0.18 //x=8.11 //y=4.865 //x2=7.77 //y2=4.7
r167 (  56 68 ) resistor r=45.1352 //w=0.168 //l=0.173853 //layer=ply \
 //thickness=0.18 //x=8.105 //y=1.21 //x2=8.065 //y2=1.365
r168 (  55 67 ) resistor r=45.1352 //w=0.168 //l=0.173853 //layer=ply \
 //thickness=0.18 //x=8.105 //y=0.865 //x2=8.065 //y2=0.71
r169 (  55 56 ) resistor r=176.904 //w=0.094 //l=0.345 //layer=ply \
 //thickness=0.18 //x=8.105 //y=0.865 //x2=8.105 //y2=1.21
r170 (  53 63 ) resistor r=10.701 //w=0.21 //l=0.115 //layer=ply \
 //thickness=0.18 //x=7.73 //y=1.365 //x2=7.615 //y2=1.365
r171 (  52 68 ) resistor r=5.52526 //w=0.168 //l=0.115 //layer=ply \
 //thickness=0.18 //x=7.95 //y=1.365 //x2=8.065 //y2=1.365
r172 (  51 62 ) resistor r=5.52526 //w=0.168 //l=0.115 //layer=ply \
 //thickness=0.18 //x=7.73 //y=0.71 //x2=7.615 //y2=0.71
r173 (  50 67 ) resistor r=5.52526 //w=0.168 //l=0.115 //layer=ply \
 //thickness=0.18 //x=7.95 //y=0.71 //x2=8.065 //y2=0.71
r174 (  50 51 ) resistor r=112.809 //w=0.094 //l=0.22 //layer=ply \
 //thickness=0.18 //x=7.95 //y=0.71 //x2=7.73 //y2=0.71