// File: DFFQNX1.spi.DFFQNX1.pxi
// Created: Tue Oct 15 15:45:48 2024
// 
simulator lang=spectre
x_PM_DFFQNX1\%GND ( GND N_GND_c_8_p N_GND_c_117_p N_GND_c_1_p N_GND_c_9_p \
 N_GND_c_10_p N_GND_c_11_p N_GND_c_16_p N_GND_c_30_p N_GND_c_38_p N_GND_c_51_p \
 N_GND_c_75_p N_GND_c_82_p N_GND_c_88_p N_GND_c_2_p N_GND_c_3_p N_GND_c_4_p \
 N_GND_c_5_p N_GND_c_6_p N_GND_c_7_p N_GND_M0_noxref_d N_GND_M3_noxref_d \
 N_GND_M5_noxref_d N_GND_M7_noxref_d N_GND_M9_noxref_d N_GND_M11_noxref_d )  \
 PM_DFFQNX1\%GND
x_PM_DFFQNX1\%VDD ( VDD N_VDD_c_272_p N_VDD_c_264_n N_VDD_c_372_p \
 N_VDD_c_361_p N_VDD_c_287_p N_VDD_c_339_p N_VDD_c_340_p N_VDD_c_273_p \
 N_VDD_c_274_p N_VDD_c_342_p N_VDD_c_343_p N_VDD_c_285_p N_VDD_c_309_p \
 N_VDD_c_345_p N_VDD_c_346_p N_VDD_c_320_p N_VDD_c_365_p N_VDD_c_458_p \
 N_VDD_c_459_p N_VDD_c_390_p N_VDD_c_421_p N_VDD_c_461_p N_VDD_c_462_p \
 N_VDD_c_430_p N_VDD_c_500_p N_VDD_c_265_n N_VDD_c_266_n N_VDD_c_267_n \
 N_VDD_c_268_n N_VDD_c_269_n N_VDD_c_270_n N_VDD_M13_noxref_s \
 N_VDD_M14_noxref_d N_VDD_M16_noxref_d N_VDD_M18_noxref_d N_VDD_M19_noxref_s \
 N_VDD_M20_noxref_d N_VDD_M22_noxref_d N_VDD_M23_noxref_s N_VDD_M24_noxref_d \
 N_VDD_M26_noxref_d N_VDD_M27_noxref_s N_VDD_M28_noxref_d N_VDD_M30_noxref_d \
 N_VDD_M31_noxref_s N_VDD_M32_noxref_d N_VDD_M34_noxref_d N_VDD_M35_noxref_s \
 N_VDD_M36_noxref_d N_VDD_M38_noxref_d )  PM_DFFQNX1\%VDD
x_PM_DFFQNX1\%noxref_3 ( N_noxref_3_c_555_n N_noxref_3_c_560_n \
 N_noxref_3_c_561_n N_noxref_3_c_565_n N_noxref_3_c_566_n N_noxref_3_c_584_n \
 N_noxref_3_c_588_n N_noxref_3_c_590_n N_noxref_3_c_567_n N_noxref_3_c_764_p \
 N_noxref_3_c_568_n N_noxref_3_c_569_n N_noxref_3_c_751_p \
 N_noxref_3_M2_noxref_g N_noxref_3_M5_noxref_g N_noxref_3_M17_noxref_g \
 N_noxref_3_M18_noxref_g N_noxref_3_M23_noxref_g N_noxref_3_M24_noxref_g \
 N_noxref_3_c_644_p N_noxref_3_c_645_p N_noxref_3_c_646_p N_noxref_3_c_688_p \
 N_noxref_3_c_665_p N_noxref_3_c_690_p N_noxref_3_c_666_p N_noxref_3_c_570_n \
 N_noxref_3_c_572_n N_noxref_3_c_573_n N_noxref_3_c_574_n N_noxref_3_c_575_n \
 N_noxref_3_c_576_n N_noxref_3_c_577_n N_noxref_3_c_579_n N_noxref_3_c_639_p \
 N_noxref_3_c_649_p N_noxref_3_c_634_p N_noxref_3_c_607_n \
 N_noxref_3_M4_noxref_d N_noxref_3_M19_noxref_d N_noxref_3_M21_noxref_d )  \
 PM_DFFQNX1\%noxref_3
x_PM_DFFQNX1\%noxref_4 ( N_noxref_4_c_787_n N_noxref_4_c_791_n \
 N_noxref_4_c_808_n N_noxref_4_c_812_n N_noxref_4_c_814_n N_noxref_4_c_792_n \
 N_noxref_4_c_877_p N_noxref_4_c_793_n N_noxref_4_c_794_n N_noxref_4_c_904_p \
 N_noxref_4_M7_noxref_g N_noxref_4_M27_noxref_g N_noxref_4_M28_noxref_g \
 N_noxref_4_c_795_n N_noxref_4_c_797_n N_noxref_4_c_798_n N_noxref_4_c_799_n \
 N_noxref_4_c_800_n N_noxref_4_c_801_n N_noxref_4_c_802_n N_noxref_4_c_804_n \
 N_noxref_4_c_827_n N_noxref_4_M6_noxref_d N_noxref_4_M23_noxref_d \
 N_noxref_4_M25_noxref_d )  PM_DFFQNX1\%noxref_4
x_PM_DFFQNX1\%CLK ( N_CLK_c_940_n N_CLK_c_958_n CLK CLK CLK CLK CLK CLK CLK \
 CLK CLK N_CLK_c_937_n N_CLK_c_1003_n N_CLK_c_938_n N_CLK_M1_noxref_g \
 N_CLK_M8_noxref_g N_CLK_M15_noxref_g N_CLK_M16_noxref_g N_CLK_M29_noxref_g \
 N_CLK_M30_noxref_g N_CLK_c_1083_p N_CLK_c_1085_p N_CLK_c_1117_p \
 N_CLK_c_1124_p N_CLK_c_989_n N_CLK_c_990_n N_CLK_c_991_n N_CLK_c_992_n \
 N_CLK_c_995_n N_CLK_c_1012_n N_CLK_c_1015_n N_CLK_c_1017_n N_CLK_c_1053_p \
 N_CLK_c_1102_p N_CLK_c_1070_p N_CLK_c_1020_n N_CLK_c_1021_n N_CLK_c_996_n \
 N_CLK_c_1022_n N_CLK_c_1077_p N_CLK_c_1024_n )  PM_DFFQNX1\%CLK
x_PM_DFFQNX1\%noxref_6 ( N_noxref_6_c_1215_n N_noxref_6_c_1216_n \
 N_noxref_6_c_1142_n N_noxref_6_c_1223_n N_noxref_6_c_1169_n \
 N_noxref_6_c_1173_n N_noxref_6_c_1175_n N_noxref_6_c_1179_n \
 N_noxref_6_c_1144_n N_noxref_6_c_1229_n N_noxref_6_c_1183_n \
 N_noxref_6_c_1145_n N_noxref_6_c_1146_n N_noxref_6_c_1277_n \
 N_noxref_6_c_1241_n N_noxref_6_M3_noxref_g N_noxref_6_M9_noxref_g \
 N_noxref_6_M19_noxref_g N_noxref_6_M20_noxref_g N_noxref_6_M31_noxref_g \
 N_noxref_6_M32_noxref_g N_noxref_6_c_1147_n N_noxref_6_c_1149_n \
 N_noxref_6_c_1150_n N_noxref_6_c_1151_n N_noxref_6_c_1152_n \
 N_noxref_6_c_1153_n N_noxref_6_c_1154_n N_noxref_6_c_1156_n \
 N_noxref_6_c_1157_n N_noxref_6_c_1159_n N_noxref_6_c_1160_n \
 N_noxref_6_c_1161_n N_noxref_6_c_1162_n N_noxref_6_c_1163_n \
 N_noxref_6_c_1164_n N_noxref_6_c_1166_n N_noxref_6_c_1198_n \
 N_noxref_6_c_1199_n N_noxref_6_M2_noxref_d N_noxref_6_M13_noxref_d \
 N_noxref_6_M15_noxref_d N_noxref_6_M17_noxref_d )  PM_DFFQNX1\%noxref_6
x_PM_DFFQNX1\%QN ( N_QN_c_1395_n N_QN_c_1399_n QN QN QN QN QN QN QN QN QN QN \
 N_QN_c_1418_n N_QN_c_1422_n N_QN_c_1424_n N_QN_c_1401_n N_QN_c_1487_p \
 N_QN_c_1402_n N_QN_c_1509_p N_QN_M11_noxref_g N_QN_M35_noxref_g \
 N_QN_M36_noxref_g N_QN_c_1403_n N_QN_c_1405_n N_QN_c_1406_n N_QN_c_1407_n \
 N_QN_c_1408_n N_QN_c_1409_n N_QN_c_1410_n N_QN_c_1412_n N_QN_c_1435_n \
 N_QN_M10_noxref_d N_QN_M31_noxref_d N_QN_M33_noxref_d )  PM_DFFQNX1\%QN
x_PM_DFFQNX1\%noxref_8 ( N_noxref_8_c_1542_n N_noxref_8_c_1543_n \
 N_noxref_8_c_1572_n N_noxref_8_c_1642_n N_noxref_8_c_1544_n \
 N_noxref_8_c_1586_n N_noxref_8_c_1545_n N_noxref_8_c_1644_n \
 N_noxref_8_c_1546_n N_noxref_8_c_1594_n N_noxref_8_c_1598_n \
 N_noxref_8_c_1600_n N_noxref_8_c_1548_n N_noxref_8_c_1782_n \
 N_noxref_8_c_1549_n N_noxref_8_c_1797_n N_noxref_8_c_1550_n \
 N_noxref_8_c_1737_n N_noxref_8_M0_noxref_g N_noxref_8_M6_noxref_g \
 N_noxref_8_M12_noxref_g N_noxref_8_M13_noxref_g N_noxref_8_M14_noxref_g \
 N_noxref_8_M25_noxref_g N_noxref_8_M26_noxref_g N_noxref_8_M37_noxref_g \
 N_noxref_8_M38_noxref_g N_noxref_8_c_1552_n N_noxref_8_c_1554_n \
 N_noxref_8_c_1555_n N_noxref_8_c_1556_n N_noxref_8_c_1557_n \
 N_noxref_8_c_1558_n N_noxref_8_c_1559_n N_noxref_8_c_1561_n \
 N_noxref_8_c_1751_n N_noxref_8_c_1622_n N_noxref_8_c_1653_n \
 N_noxref_8_c_1656_n N_noxref_8_c_1658_n N_noxref_8_c_1690_n \
 N_noxref_8_c_1692_n N_noxref_8_c_1693_n N_noxref_8_c_1661_n \
 N_noxref_8_c_1662_n N_noxref_8_c_1806_n N_noxref_8_c_1809_n \
 N_noxref_8_c_1811_n N_noxref_8_c_1822_p N_noxref_8_c_1849_p \
 N_noxref_8_c_1834_p N_noxref_8_c_1814_n N_noxref_8_c_1815_n \
 N_noxref_8_c_1663_n N_noxref_8_c_1699_n N_noxref_8_c_1665_n \
 N_noxref_8_c_1816_n N_noxref_8_c_1841_p N_noxref_8_c_1818_n \
 N_noxref_8_M8_noxref_d N_noxref_8_M27_noxref_d N_noxref_8_M29_noxref_d )  \
 PM_DFFQNX1\%noxref_8
x_PM_DFFQNX1\%noxref_9 ( N_noxref_9_c_1900_n N_noxref_9_c_1901_n \
 N_noxref_9_c_1941_n N_noxref_9_c_1902_n N_noxref_9_c_1913_n \
 N_noxref_9_c_1917_n N_noxref_9_c_1919_n N_noxref_9_c_1904_n \
 N_noxref_9_c_2048_p N_noxref_9_c_1905_n N_noxref_9_c_2024_n \
 N_noxref_9_M10_noxref_g N_noxref_9_M33_noxref_g N_noxref_9_M34_noxref_g \
 N_noxref_9_c_1949_n N_noxref_9_c_1952_n N_noxref_9_c_1954_n \
 N_noxref_9_c_1987_n N_noxref_9_c_1989_n N_noxref_9_c_1990_n \
 N_noxref_9_c_1957_n N_noxref_9_c_1958_n N_noxref_9_c_1959_n \
 N_noxref_9_c_1996_n N_noxref_9_c_1961_n N_noxref_9_M12_noxref_d \
 N_noxref_9_M35_noxref_d N_noxref_9_M37_noxref_d )  PM_DFFQNX1\%noxref_9
x_PM_DFFQNX1\%noxref_10 ( N_noxref_10_c_2083_n N_noxref_10_c_2058_n \
 N_noxref_10_c_2062_n N_noxref_10_c_2065_n N_noxref_10_c_2076_n \
 N_noxref_10_M0_noxref_s )  PM_DFFQNX1\%noxref_10
x_PM_DFFQNX1\%noxref_11 ( N_noxref_11_c_2105_n N_noxref_11_c_2107_n \
 N_noxref_11_c_2110_n N_noxref_11_c_2113_n N_noxref_11_c_2124_n \
 N_noxref_11_M1_noxref_d N_noxref_11_M2_noxref_s )  PM_DFFQNX1\%noxref_11
x_PM_DFFQNX1\%D ( D D N_D_c_2167_n N_D_c_2158_n N_D_M4_noxref_g \
 N_D_M21_noxref_g N_D_M22_noxref_g N_D_c_2177_n N_D_c_2178_n N_D_c_2179_n \
 N_D_c_2180_n N_D_c_2182_n N_D_c_2183_n N_D_c_2185_n N_D_c_2186_n N_D_c_2188_n \
 N_D_c_2189_n N_D_c_2191_n )  PM_DFFQNX1\%D
x_PM_DFFQNX1\%noxref_13 ( N_noxref_13_c_2250_n N_noxref_13_c_2231_n \
 N_noxref_13_c_2235_n N_noxref_13_c_2238_n N_noxref_13_c_2239_n \
 N_noxref_13_c_2242_n N_noxref_13_M3_noxref_s )  PM_DFFQNX1\%noxref_13
x_PM_DFFQNX1\%noxref_14 ( N_noxref_14_c_2302_n N_noxref_14_c_2283_n \
 N_noxref_14_c_2287_n N_noxref_14_c_2290_n N_noxref_14_c_2291_n \
 N_noxref_14_c_2294_n N_noxref_14_M5_noxref_s )  PM_DFFQNX1\%noxref_14
x_PM_DFFQNX1\%noxref_15 ( N_noxref_15_c_2355_n N_noxref_15_c_2336_n \
 N_noxref_15_c_2340_n N_noxref_15_c_2343_n N_noxref_15_c_2344_n \
 N_noxref_15_c_2347_n N_noxref_15_M7_noxref_s )  PM_DFFQNX1\%noxref_15
x_PM_DFFQNX1\%noxref_16 ( N_noxref_16_c_2408_n N_noxref_16_c_2389_n \
 N_noxref_16_c_2393_n N_noxref_16_c_2396_n N_noxref_16_c_2397_n \
 N_noxref_16_c_2400_n N_noxref_16_M9_noxref_s )  PM_DFFQNX1\%noxref_16
x_PM_DFFQNX1\%noxref_17 ( N_noxref_17_c_2460_n N_noxref_17_c_2443_n \
 N_noxref_17_c_2447_n N_noxref_17_c_2450_n N_noxref_17_c_2451_n \
 N_noxref_17_c_2453_n N_noxref_17_M11_noxref_s )  PM_DFFQNX1\%noxref_17
cc_1 ( N_GND_c_1_p N_VDD_c_264_n ) capacitor c=0.00989031f //x=0.74 //y=0 \
 //x2=0.74 //y2=7.4
cc_2 ( N_GND_c_2_p N_VDD_c_265_n ) capacitor c=0.00989031f //x=21.09 //y=0 \
 //x2=21.09 //y2=7.4
cc_3 ( N_GND_c_3_p N_VDD_c_266_n ) capacitor c=0.00500587f //x=4.81 //y=0 \
 //x2=4.81 //y2=7.4
cc_4 ( N_GND_c_4_p N_VDD_c_267_n ) capacitor c=0.00500587f //x=8.14 //y=0 \
 //x2=8.14 //y2=7.4
cc_5 ( N_GND_c_5_p N_VDD_c_268_n ) capacitor c=0.00500587f //x=11.47 //y=0 \
 //x2=11.47 //y2=7.4
cc_6 ( N_GND_c_6_p N_VDD_c_269_n ) capacitor c=0.00524516f //x=14.8 //y=0 \
 //x2=14.8 //y2=7.4
cc_7 ( N_GND_c_7_p N_VDD_c_270_n ) capacitor c=0.00500587f //x=18.13 //y=0 \
 //x2=18.13 //y2=7.4
cc_8 ( N_GND_c_8_p N_noxref_3_c_555_n ) capacitor c=0.0264756f //x=21.09 //y=0 \
 //x2=7.285 //y2=3.33
cc_9 ( N_GND_c_9_p N_noxref_3_c_555_n ) capacitor c=0.00174514f //x=4.64 //y=0 \
 //x2=7.285 //y2=3.33
cc_10 ( N_GND_c_10_p N_noxref_3_c_555_n ) capacitor c=0.00192599f //x=5.905 \
 //y=0 //x2=7.285 //y2=3.33
cc_11 ( N_GND_c_11_p N_noxref_3_c_555_n ) capacitor c=5.39691e-19 //x=7.97 \
 //y=0 //x2=7.285 //y2=3.33
cc_12 ( N_GND_c_3_p N_noxref_3_c_555_n ) capacitor c=0.00820844f //x=4.81 \
 //y=0 //x2=7.285 //y2=3.33
cc_13 ( N_GND_c_8_p N_noxref_3_c_560_n ) capacitor c=0.00172266f //x=21.09 \
 //y=0 //x2=3.445 //y2=3.33
cc_14 ( N_GND_c_8_p N_noxref_3_c_561_n ) capacitor c=0.0143714f //x=21.09 \
 //y=0 //x2=9.135 //y2=3.33
cc_15 ( N_GND_c_11_p N_noxref_3_c_561_n ) capacitor c=0.00157139f //x=7.97 \
 //y=0 //x2=9.135 //y2=3.33
cc_16 ( N_GND_c_16_p N_noxref_3_c_561_n ) capacitor c=0.00189853f //x=9.235 \
 //y=0 //x2=9.135 //y2=3.33
cc_17 ( N_GND_c_4_p N_noxref_3_c_561_n ) capacitor c=0.00820844f //x=8.14 \
 //y=0 //x2=9.135 //y2=3.33
cc_18 ( N_GND_c_8_p N_noxref_3_c_565_n ) capacitor c=0.00153258f //x=21.09 \
 //y=0 //x2=7.515 //y2=3.33
cc_19 ( N_GND_c_3_p N_noxref_3_c_566_n ) capacitor c=9.53263e-19 //x=4.81 \
 //y=0 //x2=3.33 //y2=2.08
cc_20 ( N_GND_c_4_p N_noxref_3_c_567_n ) capacitor c=0.0462817f //x=8.14 //y=0 \
 //x2=7.315 //y2=1.655
cc_21 ( N_GND_c_3_p N_noxref_3_c_568_n ) capacitor c=9.64732e-19 //x=4.81 \
 //y=0 //x2=7.4 //y2=3.33
cc_22 ( N_GND_c_4_p N_noxref_3_c_569_n ) capacitor c=0.0179404f //x=8.14 //y=0 \
 //x2=9.25 //y2=2.08
cc_23 ( N_GND_c_16_p N_noxref_3_c_570_n ) capacitor c=0.00135046f //x=9.235 \
 //y=0 //x2=9.055 //y2=0.865
cc_24 ( N_GND_M5_noxref_d N_noxref_3_c_570_n ) capacitor c=0.00220047f \
 //x=9.13 //y=0.865 //x2=9.055 //y2=0.865
cc_25 ( N_GND_M5_noxref_d N_noxref_3_c_572_n ) capacitor c=0.00255985f \
 //x=9.13 //y=0.865 //x2=9.055 //y2=1.21
cc_26 ( N_GND_c_4_p N_noxref_3_c_573_n ) capacitor c=0.0018059f //x=8.14 //y=0 \
 //x2=9.055 //y2=1.52
cc_27 ( N_GND_c_4_p N_noxref_3_c_574_n ) capacitor c=0.0114883f //x=8.14 //y=0 \
 //x2=9.055 //y2=1.915
cc_28 ( N_GND_M5_noxref_d N_noxref_3_c_575_n ) capacitor c=0.0131326f //x=9.13 \
 //y=0.865 //x2=9.43 //y2=0.71
cc_29 ( N_GND_M5_noxref_d N_noxref_3_c_576_n ) capacitor c=0.00193127f \
 //x=9.13 //y=0.865 //x2=9.43 //y2=1.365
cc_30 ( N_GND_c_30_p N_noxref_3_c_577_n ) capacitor c=0.00130622f //x=11.3 \
 //y=0 //x2=9.585 //y2=0.865
cc_31 ( N_GND_M5_noxref_d N_noxref_3_c_577_n ) capacitor c=0.00257848f \
 //x=9.13 //y=0.865 //x2=9.585 //y2=0.865
cc_32 ( N_GND_M5_noxref_d N_noxref_3_c_579_n ) capacitor c=0.00255985f \
 //x=9.13 //y=0.865 //x2=9.585 //y2=1.21
cc_33 ( N_GND_c_3_p N_noxref_3_M4_noxref_d ) capacitor c=8.58106e-19 //x=4.81 \
 //y=0 //x2=6.77 //y2=0.905
cc_34 ( N_GND_c_4_p N_noxref_3_M4_noxref_d ) capacitor c=0.00616547f //x=8.14 \
 //y=0 //x2=6.77 //y2=0.905
cc_35 ( N_GND_M3_noxref_d N_noxref_3_M4_noxref_d ) capacitor c=0.00143464f \
 //x=5.8 //y=0.865 //x2=6.77 //y2=0.905
cc_36 ( N_GND_c_8_p N_noxref_4_c_787_n ) capacitor c=0.0143714f //x=21.09 \
 //y=0 //x2=12.465 //y2=3.33
cc_37 ( N_GND_c_30_p N_noxref_4_c_787_n ) capacitor c=0.00157139f //x=11.3 \
 //y=0 //x2=12.465 //y2=3.33
cc_38 ( N_GND_c_38_p N_noxref_4_c_787_n ) capacitor c=0.00189853f //x=12.565 \
 //y=0 //x2=12.465 //y2=3.33
cc_39 ( N_GND_c_5_p N_noxref_4_c_787_n ) capacitor c=0.00820844f //x=11.47 \
 //y=0 //x2=12.465 //y2=3.33
cc_40 ( N_GND_c_8_p N_noxref_4_c_791_n ) capacitor c=0.00174211f //x=21.09 \
 //y=0 //x2=10.845 //y2=3.33
cc_41 ( N_GND_c_5_p N_noxref_4_c_792_n ) capacitor c=0.0462817f //x=11.47 \
 //y=0 //x2=10.645 //y2=1.655
cc_42 ( N_GND_c_4_p N_noxref_4_c_793_n ) capacitor c=9.64732e-19 //x=8.14 \
 //y=0 //x2=10.73 //y2=3.33
cc_43 ( N_GND_c_5_p N_noxref_4_c_794_n ) capacitor c=0.0179404f //x=11.47 \
 //y=0 //x2=12.58 //y2=2.08
cc_44 ( N_GND_c_38_p N_noxref_4_c_795_n ) capacitor c=0.00135046f //x=12.565 \
 //y=0 //x2=12.385 //y2=0.865
cc_45 ( N_GND_M7_noxref_d N_noxref_4_c_795_n ) capacitor c=0.00220047f \
 //x=12.46 //y=0.865 //x2=12.385 //y2=0.865
cc_46 ( N_GND_M7_noxref_d N_noxref_4_c_797_n ) capacitor c=0.00255985f \
 //x=12.46 //y=0.865 //x2=12.385 //y2=1.21
cc_47 ( N_GND_c_5_p N_noxref_4_c_798_n ) capacitor c=0.0018059f //x=11.47 \
 //y=0 //x2=12.385 //y2=1.52
cc_48 ( N_GND_c_5_p N_noxref_4_c_799_n ) capacitor c=0.0114883f //x=11.47 \
 //y=0 //x2=12.385 //y2=1.915
cc_49 ( N_GND_M7_noxref_d N_noxref_4_c_800_n ) capacitor c=0.0131326f \
 //x=12.46 //y=0.865 //x2=12.76 //y2=0.71
cc_50 ( N_GND_M7_noxref_d N_noxref_4_c_801_n ) capacitor c=0.00193127f \
 //x=12.46 //y=0.865 //x2=12.76 //y2=1.365
cc_51 ( N_GND_c_51_p N_noxref_4_c_802_n ) capacitor c=0.00130622f //x=14.63 \
 //y=0 //x2=12.915 //y2=0.865
cc_52 ( N_GND_M7_noxref_d N_noxref_4_c_802_n ) capacitor c=0.00257848f \
 //x=12.46 //y=0.865 //x2=12.915 //y2=0.865
cc_53 ( N_GND_M7_noxref_d N_noxref_4_c_804_n ) capacitor c=0.00255985f \
 //x=12.46 //y=0.865 //x2=12.915 //y2=1.21
cc_54 ( N_GND_c_4_p N_noxref_4_M6_noxref_d ) capacitor c=8.58106e-19 //x=8.14 \
 //y=0 //x2=10.1 //y2=0.905
cc_55 ( N_GND_c_5_p N_noxref_4_M6_noxref_d ) capacitor c=0.00616547f //x=11.47 \
 //y=0 //x2=10.1 //y2=0.905
cc_56 ( N_GND_M5_noxref_d N_noxref_4_M6_noxref_d ) capacitor c=0.00143464f \
 //x=9.13 //y=0.865 //x2=10.1 //y2=0.905
cc_57 ( N_GND_c_1_p N_CLK_c_937_n ) capacitor c=7.64246e-19 //x=0.74 //y=0 \
 //x2=2.22 //y2=2.08
cc_58 ( N_GND_c_5_p N_CLK_c_938_n ) capacitor c=9.2064e-19 //x=11.47 //y=0 \
 //x2=13.32 //y2=2.08
cc_59 ( N_GND_c_6_p N_CLK_c_938_n ) capacitor c=9.53263e-19 //x=14.8 //y=0 \
 //x2=13.32 //y2=2.08
cc_60 ( N_GND_c_8_p N_noxref_6_c_1142_n ) capacitor c=0.046817f //x=21.09 \
 //y=0 //x2=15.795 //y2=3.7
cc_61 ( N_GND_c_6_p N_noxref_6_c_1142_n ) capacitor c=0.00533016f //x=14.8 \
 //y=0 //x2=15.795 //y2=3.7
cc_62 ( N_GND_c_3_p N_noxref_6_c_1144_n ) capacitor c=0.0459932f //x=4.81 \
 //y=0 //x2=3.985 //y2=1.665
cc_63 ( N_GND_c_3_p N_noxref_6_c_1145_n ) capacitor c=0.0179404f //x=4.81 \
 //y=0 //x2=5.92 //y2=2.08
cc_64 ( N_GND_c_6_p N_noxref_6_c_1146_n ) capacitor c=0.0179404f //x=14.8 \
 //y=0 //x2=15.91 //y2=2.08
cc_65 ( N_GND_c_10_p N_noxref_6_c_1147_n ) capacitor c=0.00135046f //x=5.905 \
 //y=0 //x2=5.725 //y2=0.865
cc_66 ( N_GND_M3_noxref_d N_noxref_6_c_1147_n ) capacitor c=0.00220047f \
 //x=5.8 //y=0.865 //x2=5.725 //y2=0.865
cc_67 ( N_GND_M3_noxref_d N_noxref_6_c_1149_n ) capacitor c=0.00255985f \
 //x=5.8 //y=0.865 //x2=5.725 //y2=1.21
cc_68 ( N_GND_c_3_p N_noxref_6_c_1150_n ) capacitor c=0.00189421f //x=4.81 \
 //y=0 //x2=5.725 //y2=1.52
cc_69 ( N_GND_c_3_p N_noxref_6_c_1151_n ) capacitor c=0.0114883f //x=4.81 \
 //y=0 //x2=5.725 //y2=1.915
cc_70 ( N_GND_M3_noxref_d N_noxref_6_c_1152_n ) capacitor c=0.0131326f //x=5.8 \
 //y=0.865 //x2=6.1 //y2=0.71
cc_71 ( N_GND_M3_noxref_d N_noxref_6_c_1153_n ) capacitor c=0.00193127f \
 //x=5.8 //y=0.865 //x2=6.1 //y2=1.365
cc_72 ( N_GND_c_11_p N_noxref_6_c_1154_n ) capacitor c=0.00130622f //x=7.97 \
 //y=0 //x2=6.255 //y2=0.865
cc_73 ( N_GND_M3_noxref_d N_noxref_6_c_1154_n ) capacitor c=0.00257848f \
 //x=5.8 //y=0.865 //x2=6.255 //y2=0.865
cc_74 ( N_GND_M3_noxref_d N_noxref_6_c_1156_n ) capacitor c=0.00255985f \
 //x=5.8 //y=0.865 //x2=6.255 //y2=1.21
cc_75 ( N_GND_c_75_p N_noxref_6_c_1157_n ) capacitor c=0.00135046f //x=15.895 \
 //y=0 //x2=15.715 //y2=0.865
cc_76 ( N_GND_M9_noxref_d N_noxref_6_c_1157_n ) capacitor c=0.00220047f \
 //x=15.79 //y=0.865 //x2=15.715 //y2=0.865
cc_77 ( N_GND_M9_noxref_d N_noxref_6_c_1159_n ) capacitor c=0.00255985f \
 //x=15.79 //y=0.865 //x2=15.715 //y2=1.21
cc_78 ( N_GND_c_6_p N_noxref_6_c_1160_n ) capacitor c=0.0018059f //x=14.8 \
 //y=0 //x2=15.715 //y2=1.52
cc_79 ( N_GND_c_6_p N_noxref_6_c_1161_n ) capacitor c=0.0114883f //x=14.8 \
 //y=0 //x2=15.715 //y2=1.915
cc_80 ( N_GND_M9_noxref_d N_noxref_6_c_1162_n ) capacitor c=0.0131326f \
 //x=15.79 //y=0.865 //x2=16.09 //y2=0.71
cc_81 ( N_GND_M9_noxref_d N_noxref_6_c_1163_n ) capacitor c=0.00193127f \
 //x=15.79 //y=0.865 //x2=16.09 //y2=1.365
cc_82 ( N_GND_c_82_p N_noxref_6_c_1164_n ) capacitor c=0.00130622f //x=17.96 \
 //y=0 //x2=16.245 //y2=0.865
cc_83 ( N_GND_M9_noxref_d N_noxref_6_c_1164_n ) capacitor c=0.00257848f \
 //x=15.79 //y=0.865 //x2=16.245 //y2=0.865
cc_84 ( N_GND_M9_noxref_d N_noxref_6_c_1166_n ) capacitor c=0.00255985f \
 //x=15.79 //y=0.865 //x2=16.245 //y2=1.21
cc_85 ( N_GND_c_3_p N_noxref_6_M2_noxref_d ) capacitor c=0.00591582f //x=4.81 \
 //y=0 //x2=3.395 //y2=0.915
cc_86 ( N_GND_c_8_p N_QN_c_1395_n ) capacitor c=0.0143714f //x=21.09 //y=0 \
 //x2=19.125 //y2=3.33
cc_87 ( N_GND_c_82_p N_QN_c_1395_n ) capacitor c=0.00157139f //x=17.96 //y=0 \
 //x2=19.125 //y2=3.33
cc_88 ( N_GND_c_88_p N_QN_c_1395_n ) capacitor c=0.00189853f //x=19.225 //y=0 \
 //x2=19.125 //y2=3.33
cc_89 ( N_GND_c_7_p N_QN_c_1395_n ) capacitor c=0.00820844f //x=18.13 //y=0 \
 //x2=19.125 //y2=3.33
cc_90 ( N_GND_c_8_p N_QN_c_1399_n ) capacitor c=0.00174211f //x=21.09 //y=0 \
 //x2=17.505 //y2=3.33
cc_91 ( N_GND_c_6_p QN ) capacitor c=9.64732e-19 //x=14.8 //y=0 //x2=17.39 \
 //y2=2.22
cc_92 ( N_GND_c_7_p N_QN_c_1401_n ) capacitor c=0.0462817f //x=18.13 //y=0 \
 //x2=17.305 //y2=1.655
cc_93 ( N_GND_c_7_p N_QN_c_1402_n ) capacitor c=0.0179404f //x=18.13 //y=0 \
 //x2=19.24 //y2=2.08
cc_94 ( N_GND_c_88_p N_QN_c_1403_n ) capacitor c=0.00135046f //x=19.225 //y=0 \
 //x2=19.045 //y2=0.865
cc_95 ( N_GND_M11_noxref_d N_QN_c_1403_n ) capacitor c=0.00220047f //x=19.12 \
 //y=0.865 //x2=19.045 //y2=0.865
cc_96 ( N_GND_M11_noxref_d N_QN_c_1405_n ) capacitor c=0.00255985f //x=19.12 \
 //y=0.865 //x2=19.045 //y2=1.21
cc_97 ( N_GND_c_7_p N_QN_c_1406_n ) capacitor c=0.0018059f //x=18.13 //y=0 \
 //x2=19.045 //y2=1.52
cc_98 ( N_GND_c_7_p N_QN_c_1407_n ) capacitor c=0.0114883f //x=18.13 //y=0 \
 //x2=19.045 //y2=1.915
cc_99 ( N_GND_M11_noxref_d N_QN_c_1408_n ) capacitor c=0.0131326f //x=19.12 \
 //y=0.865 //x2=19.42 //y2=0.71
cc_100 ( N_GND_M11_noxref_d N_QN_c_1409_n ) capacitor c=0.00193127f //x=19.12 \
 //y=0.865 //x2=19.42 //y2=1.365
cc_101 ( N_GND_c_2_p N_QN_c_1410_n ) capacitor c=0.00130622f //x=21.09 //y=0 \
 //x2=19.575 //y2=0.865
cc_102 ( N_GND_M11_noxref_d N_QN_c_1410_n ) capacitor c=0.00257848f //x=19.12 \
 //y=0.865 //x2=19.575 //y2=0.865
cc_103 ( N_GND_M11_noxref_d N_QN_c_1412_n ) capacitor c=0.00255985f //x=19.12 \
 //y=0.865 //x2=19.575 //y2=1.21
cc_104 ( N_GND_c_6_p N_QN_M10_noxref_d ) capacitor c=8.58106e-19 //x=14.8 \
 //y=0 //x2=16.76 //y2=0.905
cc_105 ( N_GND_c_7_p N_QN_M10_noxref_d ) capacitor c=0.00616547f //x=18.13 \
 //y=0 //x2=16.76 //y2=0.905
cc_106 ( N_GND_M9_noxref_d N_QN_M10_noxref_d ) capacitor c=0.00143464f \
 //x=15.79 //y=0.865 //x2=16.76 //y2=0.905
cc_107 ( N_GND_c_8_p N_noxref_8_c_1542_n ) capacitor c=0.0147496f //x=21.09 \
 //y=0 //x2=9.875 //y2=4.07
cc_108 ( N_GND_c_8_p N_noxref_8_c_1543_n ) capacitor c=0.0015877f //x=21.09 \
 //y=0 //x2=1.225 //y2=4.07
cc_109 ( N_GND_c_8_p N_noxref_8_c_1544_n ) capacitor c=0.0131174f //x=21.09 \
 //y=0 //x2=19.865 //y2=4.07
cc_110 ( N_GND_c_1_p N_noxref_8_c_1545_n ) capacitor c=0.0180363f //x=0.74 \
 //y=0 //x2=1.11 //y2=2.08
cc_111 ( N_GND_c_4_p N_noxref_8_c_1546_n ) capacitor c=9.2064e-19 //x=8.14 \
 //y=0 //x2=9.99 //y2=2.08
cc_112 ( N_GND_c_5_p N_noxref_8_c_1546_n ) capacitor c=9.53263e-19 //x=11.47 \
 //y=0 //x2=9.99 //y2=2.08
cc_113 ( N_GND_c_6_p N_noxref_8_c_1548_n ) capacitor c=0.0462817f //x=14.8 \
 //y=0 //x2=13.975 //y2=1.655
cc_114 ( N_GND_c_5_p N_noxref_8_c_1549_n ) capacitor c=9.64732e-19 //x=11.47 \
 //y=0 //x2=14.06 //y2=4.07
cc_115 ( N_GND_c_2_p N_noxref_8_c_1550_n ) capacitor c=9.53263e-19 //x=21.09 \
 //y=0 //x2=19.98 //y2=2.08
cc_116 ( N_GND_c_7_p N_noxref_8_c_1550_n ) capacitor c=9.2064e-19 //x=18.13 \
 //y=0 //x2=19.98 //y2=2.08
cc_117 ( N_GND_c_117_p N_noxref_8_c_1552_n ) capacitor c=0.00132755f //x=0.99 \
 //y=0 //x2=0.81 //y2=0.875
cc_118 ( N_GND_M0_noxref_d N_noxref_8_c_1552_n ) capacitor c=0.00211996f \
 //x=0.885 //y=0.875 //x2=0.81 //y2=0.875
cc_119 ( N_GND_M0_noxref_d N_noxref_8_c_1554_n ) capacitor c=0.00255985f \
 //x=0.885 //y=0.875 //x2=0.81 //y2=1.22
cc_120 ( N_GND_c_1_p N_noxref_8_c_1555_n ) capacitor c=0.00295461f //x=0.74 \
 //y=0 //x2=0.81 //y2=1.53
cc_121 ( N_GND_c_1_p N_noxref_8_c_1556_n ) capacitor c=0.0134214f //x=0.74 \
 //y=0 //x2=0.81 //y2=1.915
cc_122 ( N_GND_M0_noxref_d N_noxref_8_c_1557_n ) capacitor c=0.0131341f \
 //x=0.885 //y=0.875 //x2=1.185 //y2=0.72
cc_123 ( N_GND_M0_noxref_d N_noxref_8_c_1558_n ) capacitor c=0.00193146f \
 //x=0.885 //y=0.875 //x2=1.185 //y2=1.375
cc_124 ( N_GND_c_9_p N_noxref_8_c_1559_n ) capacitor c=0.00129018f //x=4.64 \
 //y=0 //x2=1.34 //y2=0.875
cc_125 ( N_GND_M0_noxref_d N_noxref_8_c_1559_n ) capacitor c=0.00257848f \
 //x=0.885 //y=0.875 //x2=1.34 //y2=0.875
cc_126 ( N_GND_M0_noxref_d N_noxref_8_c_1561_n ) capacitor c=0.00255985f \
 //x=0.885 //y=0.875 //x2=1.34 //y2=1.22
cc_127 ( N_GND_c_5_p N_noxref_8_M8_noxref_d ) capacitor c=8.58106e-19 \
 //x=11.47 //y=0 //x2=13.43 //y2=0.905
cc_128 ( N_GND_c_6_p N_noxref_8_M8_noxref_d ) capacitor c=0.00616547f //x=14.8 \
 //y=0 //x2=13.43 //y2=0.905
cc_129 ( N_GND_M7_noxref_d N_noxref_8_M8_noxref_d ) capacitor c=0.00143464f \
 //x=12.46 //y=0.865 //x2=13.43 //y2=0.905
cc_130 ( N_GND_c_8_p N_noxref_9_c_1900_n ) capacitor c=0.0187193f //x=21.09 \
 //y=0 //x2=20.605 //y2=3.7
cc_131 ( N_GND_c_8_p N_noxref_9_c_1901_n ) capacitor c=0.00157091f //x=21.09 \
 //y=0 //x2=16.765 //y2=3.7
cc_132 ( N_GND_c_6_p N_noxref_9_c_1902_n ) capacitor c=9.2064e-19 //x=14.8 \
 //y=0 //x2=16.65 //y2=2.08
cc_133 ( N_GND_c_7_p N_noxref_9_c_1902_n ) capacitor c=9.53263e-19 //x=18.13 \
 //y=0 //x2=16.65 //y2=2.08
cc_134 ( N_GND_c_2_p N_noxref_9_c_1904_n ) capacitor c=0.0468439f //x=21.09 \
 //y=0 //x2=20.635 //y2=1.655
cc_135 ( N_GND_c_7_p N_noxref_9_c_1905_n ) capacitor c=9.64732e-19 //x=18.13 \
 //y=0 //x2=20.72 //y2=3.7
cc_136 ( N_GND_c_2_p N_noxref_9_M12_noxref_d ) capacitor c=0.00618259f \
 //x=21.09 //y=0 //x2=20.09 //y2=0.905
cc_137 ( N_GND_c_7_p N_noxref_9_M12_noxref_d ) capacitor c=8.58106e-19 \
 //x=18.13 //y=0 //x2=20.09 //y2=0.905
cc_138 ( N_GND_M11_noxref_d N_noxref_9_M12_noxref_d ) capacitor c=0.00143464f \
 //x=19.12 //y=0.865 //x2=20.09 //y2=0.905
cc_139 ( N_GND_c_8_p N_noxref_10_c_2058_n ) capacitor c=0.00618812f //x=21.09 \
 //y=0 //x2=1.475 //y2=1.59
cc_140 ( N_GND_c_117_p N_noxref_10_c_2058_n ) capacitor c=0.00110021f //x=0.99 \
 //y=0 //x2=1.475 //y2=1.59
cc_141 ( N_GND_c_9_p N_noxref_10_c_2058_n ) capacitor c=0.00179185f //x=4.64 \
 //y=0 //x2=1.475 //y2=1.59
cc_142 ( N_GND_M0_noxref_d N_noxref_10_c_2058_n ) capacitor c=0.00894788f \
 //x=0.885 //y=0.875 //x2=1.475 //y2=1.59
cc_143 ( N_GND_c_8_p N_noxref_10_c_2062_n ) capacitor c=0.00575184f //x=21.09 \
 //y=0 //x2=1.56 //y2=0.625
cc_144 ( N_GND_c_9_p N_noxref_10_c_2062_n ) capacitor c=0.0140218f //x=4.64 \
 //y=0 //x2=1.56 //y2=0.625
cc_145 ( N_GND_M0_noxref_d N_noxref_10_c_2062_n ) capacitor c=0.033954f \
 //x=0.885 //y=0.875 //x2=1.56 //y2=0.625
cc_146 ( N_GND_c_8_p N_noxref_10_c_2065_n ) capacitor c=0.0139021f //x=21.09 \
 //y=0 //x2=2.445 //y2=0.54
cc_147 ( N_GND_c_9_p N_noxref_10_c_2065_n ) capacitor c=0.0356078f //x=4.64 \
 //y=0 //x2=2.445 //y2=0.54
cc_148 ( N_GND_c_2_p N_noxref_10_c_2065_n ) capacitor c=0.00177725f //x=21.09 \
 //y=0 //x2=2.445 //y2=0.54
cc_149 ( N_GND_c_8_p N_noxref_10_M0_noxref_s ) capacitor c=0.0125336f \
 //x=21.09 //y=0 //x2=0.455 //y2=0.375
cc_150 ( N_GND_c_117_p N_noxref_10_M0_noxref_s ) capacitor c=0.0140218f \
 //x=0.99 //y=0 //x2=0.455 //y2=0.375
cc_151 ( N_GND_c_1_p N_noxref_10_M0_noxref_s ) capacitor c=0.0712607f //x=0.74 \
 //y=0 //x2=0.455 //y2=0.375
cc_152 ( N_GND_c_9_p N_noxref_10_M0_noxref_s ) capacitor c=0.0131422f //x=4.64 \
 //y=0 //x2=0.455 //y2=0.375
cc_153 ( N_GND_c_3_p N_noxref_10_M0_noxref_s ) capacitor c=3.31601e-19 \
 //x=4.81 //y=0 //x2=0.455 //y2=0.375
cc_154 ( N_GND_M0_noxref_d N_noxref_10_M0_noxref_s ) capacitor c=0.033718f \
 //x=0.885 //y=0.875 //x2=0.455 //y2=0.375
cc_155 ( N_GND_c_8_p N_noxref_11_c_2105_n ) capacitor c=0.00402784f //x=21.09 \
 //y=0 //x2=3.015 //y2=0.995
cc_156 ( N_GND_c_9_p N_noxref_11_c_2105_n ) capacitor c=0.00829979f //x=4.64 \
 //y=0 //x2=3.015 //y2=0.995
cc_157 ( N_GND_c_8_p N_noxref_11_c_2107_n ) capacitor c=0.00575184f //x=21.09 \
 //y=0 //x2=3.1 //y2=0.625
cc_158 ( N_GND_c_9_p N_noxref_11_c_2107_n ) capacitor c=0.0140218f //x=4.64 \
 //y=0 //x2=3.1 //y2=0.625
cc_159 ( N_GND_M0_noxref_d N_noxref_11_c_2107_n ) capacitor c=6.21394e-19 \
 //x=0.885 //y=0.875 //x2=3.1 //y2=0.625
cc_160 ( N_GND_c_8_p N_noxref_11_c_2110_n ) capacitor c=0.0118365f //x=21.09 \
 //y=0 //x2=3.985 //y2=0.54
cc_161 ( N_GND_c_9_p N_noxref_11_c_2110_n ) capacitor c=0.0365413f //x=4.64 \
 //y=0 //x2=3.985 //y2=0.54
cc_162 ( N_GND_c_2_p N_noxref_11_c_2110_n ) capacitor c=0.00189848f //x=21.09 \
 //y=0 //x2=3.985 //y2=0.54
cc_163 ( N_GND_c_8_p N_noxref_11_c_2113_n ) capacitor c=0.00287549f //x=21.09 \
 //y=0 //x2=4.07 //y2=0.625
cc_164 ( N_GND_c_9_p N_noxref_11_c_2113_n ) capacitor c=0.0142658f //x=4.64 \
 //y=0 //x2=4.07 //y2=0.625
cc_165 ( N_GND_c_3_p N_noxref_11_c_2113_n ) capacitor c=0.0404137f //x=4.81 \
 //y=0 //x2=4.07 //y2=0.625
cc_166 ( N_GND_M0_noxref_d N_noxref_11_M1_noxref_d ) capacitor c=0.00162435f \
 //x=0.885 //y=0.875 //x2=1.86 //y2=0.91
cc_167 ( N_GND_c_1_p N_noxref_11_M2_noxref_s ) capacitor c=8.16352e-19 \
 //x=0.74 //y=0 //x2=2.965 //y2=0.375
cc_168 ( N_GND_c_3_p N_noxref_11_M2_noxref_s ) capacitor c=0.00183576f \
 //x=4.81 //y=0 //x2=2.965 //y2=0.375
cc_169 ( N_GND_c_3_p N_D_c_2158_n ) capacitor c=9.2064e-19 //x=4.81 //y=0 \
 //x2=6.66 //y2=2.08
cc_170 ( N_GND_c_4_p N_D_c_2158_n ) capacitor c=9.53263e-19 //x=8.14 //y=0 \
 //x2=6.66 //y2=2.08
cc_171 ( N_GND_c_8_p N_noxref_13_c_2231_n ) capacitor c=0.00552526f //x=21.09 \
 //y=0 //x2=6.39 //y2=1.58
cc_172 ( N_GND_c_10_p N_noxref_13_c_2231_n ) capacitor c=0.00113001f //x=5.905 \
 //y=0 //x2=6.39 //y2=1.58
cc_173 ( N_GND_c_11_p N_noxref_13_c_2231_n ) capacitor c=0.0018242f //x=7.97 \
 //y=0 //x2=6.39 //y2=1.58
cc_174 ( N_GND_M3_noxref_d N_noxref_13_c_2231_n ) capacitor c=0.00897209f \
 //x=5.8 //y=0.865 //x2=6.39 //y2=1.58
cc_175 ( N_GND_c_8_p N_noxref_13_c_2235_n ) capacitor c=0.00293348f //x=21.09 \
 //y=0 //x2=6.475 //y2=0.615
cc_176 ( N_GND_c_11_p N_noxref_13_c_2235_n ) capacitor c=0.0149357f //x=7.97 \
 //y=0 //x2=6.475 //y2=0.615
cc_177 ( N_GND_M3_noxref_d N_noxref_13_c_2235_n ) capacitor c=0.033812f \
 //x=5.8 //y=0.865 //x2=6.475 //y2=0.615
cc_178 ( N_GND_c_3_p N_noxref_13_c_2238_n ) capacitor c=2.91423e-19 //x=4.81 \
 //y=0 //x2=6.475 //y2=1.495
cc_179 ( N_GND_c_8_p N_noxref_13_c_2239_n ) capacitor c=0.0120397f //x=21.09 \
 //y=0 //x2=7.36 //y2=0.53
cc_180 ( N_GND_c_11_p N_noxref_13_c_2239_n ) capacitor c=0.037553f //x=7.97 \
 //y=0 //x2=7.36 //y2=0.53
cc_181 ( N_GND_c_2_p N_noxref_13_c_2239_n ) capacitor c=0.00198885f //x=21.09 \
 //y=0 //x2=7.36 //y2=0.53
cc_182 ( N_GND_c_8_p N_noxref_13_c_2242_n ) capacitor c=0.00292576f //x=21.09 \
 //y=0 //x2=7.445 //y2=0.615
cc_183 ( N_GND_c_11_p N_noxref_13_c_2242_n ) capacitor c=0.0148673f //x=7.97 \
 //y=0 //x2=7.445 //y2=0.615
cc_184 ( N_GND_c_4_p N_noxref_13_c_2242_n ) capacitor c=0.0431718f //x=8.14 \
 //y=0 //x2=7.445 //y2=0.615
cc_185 ( N_GND_c_8_p N_noxref_13_M3_noxref_s ) capacitor c=0.00293348f \
 //x=21.09 //y=0 //x2=5.37 //y2=0.365
cc_186 ( N_GND_c_10_p N_noxref_13_M3_noxref_s ) capacitor c=0.0149357f \
 //x=5.905 //y=0 //x2=5.37 //y2=0.365
cc_187 ( N_GND_c_3_p N_noxref_13_M3_noxref_s ) capacitor c=0.0583534f //x=4.81 \
 //y=0 //x2=5.37 //y2=0.365
cc_188 ( N_GND_c_4_p N_noxref_13_M3_noxref_s ) capacitor c=0.00198043f \
 //x=8.14 //y=0 //x2=5.37 //y2=0.365
cc_189 ( N_GND_M3_noxref_d N_noxref_13_M3_noxref_s ) capacitor c=0.0334197f \
 //x=5.8 //y=0.865 //x2=5.37 //y2=0.365
cc_190 ( N_GND_c_8_p N_noxref_14_c_2283_n ) capacitor c=0.00556119f //x=21.09 \
 //y=0 //x2=9.72 //y2=1.58
cc_191 ( N_GND_c_16_p N_noxref_14_c_2283_n ) capacitor c=0.00113001f //x=9.235 \
 //y=0 //x2=9.72 //y2=1.58
cc_192 ( N_GND_c_30_p N_noxref_14_c_2283_n ) capacitor c=0.00180846f //x=11.3 \
 //y=0 //x2=9.72 //y2=1.58
cc_193 ( N_GND_M5_noxref_d N_noxref_14_c_2283_n ) capacitor c=0.00897268f \
 //x=9.13 //y=0.865 //x2=9.72 //y2=1.58
cc_194 ( N_GND_c_8_p N_noxref_14_c_2287_n ) capacitor c=0.00302994f //x=21.09 \
 //y=0 //x2=9.805 //y2=0.615
cc_195 ( N_GND_c_30_p N_noxref_14_c_2287_n ) capacitor c=0.0146208f //x=11.3 \
 //y=0 //x2=9.805 //y2=0.615
cc_196 ( N_GND_M5_noxref_d N_noxref_14_c_2287_n ) capacitor c=0.033812f \
 //x=9.13 //y=0.865 //x2=9.805 //y2=0.615
cc_197 ( N_GND_c_4_p N_noxref_14_c_2290_n ) capacitor c=2.91423e-19 //x=8.14 \
 //y=0 //x2=9.805 //y2=1.495