// File: DFFQNX1.spi.pex
// Created: Tue Oct 15 15:45:48 2024
// Program "Calibre xRC"
// Version "v2023.2_27.15"
// Nominal Temperature: 30C
// Circuit Temperature: 30C
// 
simulator lang=spectre
subckt PM_DFFQNX1\%GND ( 1 39 43 46 51 61 69 77 83 89 97 105 113 121 132 136 \
 138 141 143 145 148 149 150 151 152 153 )
c263 ( 153 0 ) capacitor c=0.0208017f //x=19.12 //y=0.865
c264 ( 152 0 ) capacitor c=0.0208124f //x=15.79 //y=0.865
c265 ( 151 0 ) capacitor c=0.0208017f //x=12.46 //y=0.865
c266 ( 150 0 ) capacitor c=0.0208017f //x=9.13 //y=0.865
c267 ( 149 0 ) capacitor c=0.0208019f //x=5.8 //y=0.865
c268 ( 148 0 ) capacitor c=0.022675f //x=0.885 //y=0.875
c269 ( 147 0 ) capacitor c=0.00440095f //x=19.24 //y=0
c270 ( 145 0 ) capacitor c=0.107063f //x=18.13 //y=0
c271 ( 144 0 ) capacitor c=0.00440095f //x=15.98 //y=0
c272 ( 143 0 ) capacitor c=0.107594f //x=14.8 //y=0
c273 ( 142 0 ) capacitor c=0.00440095f //x=12.65 //y=0
c274 ( 141 0 ) capacitor c=0.107063f //x=11.47 //y=0
c275 ( 140 0 ) capacitor c=0.00440095f //x=9.25 //y=0
c276 ( 138 0 ) capacitor c=0.107063f //x=8.14 //y=0
c277 ( 137 0 ) capacitor c=0.00440095f //x=5.99 //y=0
c278 ( 136 0 ) capacitor c=0.109996f //x=4.81 //y=0
c279 ( 135 0 ) capacitor c=0.00440144f //x=1.075 //y=0
c280 ( 132 0 ) capacitor c=0.25934f //x=21.09 //y=0
c281 ( 121 0 ) capacitor c=0.0389288f //x=19.225 //y=0
c282 ( 113 0 ) capacitor c=0.0720403f //x=17.96 //y=0
c283 ( 105 0 ) capacitor c=0.0426751f //x=15.895 //y=0
c284 ( 97 0 ) capacitor c=0.0751168f //x=14.63 //y=0
c285 ( 89 0 ) capacitor c=0.0389288f //x=12.565 //y=0
c286 ( 83 0 ) capacitor c=0.0720403f //x=11.3 //y=0
c287 ( 77 0 ) capacitor c=0.0389288f //x=9.235 //y=0
c288 ( 69 0 ) capacitor c=0.0720423f //x=7.97 //y=0
c289 ( 61 0 ) capacitor c=0.0389288f //x=5.905 //y=0
c290 ( 51 0 ) capacitor c=0.131745f //x=4.64 //y=0
c291 ( 46 0 ) capacitor c=0.178285f //x=0.74 //y=0
c292 ( 43 0 ) capacitor c=0.0367385f //x=0.99 //y=0
c293 ( 39 0 ) capacitor c=0.711045f //x=21.09 //y=0
r294 (  130 132 ) resistor r=26.5322 //w=0.357 //l=0.74 //layer=li \
 //thickness=0.1 //x=20.35 //y=0 //x2=21.09 //y2=0
r295 (  128 147 ) resistor r=2.94794 //w=0.34 //l=0.085 //layer=li \
 //thickness=0.1 //x=19.395 //y=0 //x2=19.31 //y2=0
r296 (  128 130 ) resistor r=34.2409 //w=0.357 //l=0.955 //layer=li \
 //thickness=0.1 //x=19.395 //y=0 //x2=20.35 //y2=0
r297 (  123 147 ) resistor r=4.11603 //w=0.68 //l=0.17 //layer=li \
 //thickness=0.1 //x=19.31 //y=0.17 //x2=19.31 //y2=0
r298 (  123 153 ) resistor r=53.7326 //w=0.187 //l=0.785 //layer=li \
 //thickness=0.1 //x=19.31 //y=0.17 //x2=19.31 //y2=0.955
r299 (  122 145 ) resistor r=5.4201 //w=0.34 //l=0.17 //layer=li \
 //thickness=0.1 //x=18.3 //y=0 //x2=18.13 //y2=0
r300 (  121 147 ) resistor r=2.94794 //w=0.34 //l=0.085 //layer=li \
 //thickness=0.1 //x=19.225 //y=0 //x2=19.31 //y2=0
r301 (  121 122 ) resistor r=33.1653 //w=0.357 //l=0.925 //layer=li \
 //thickness=0.1 //x=19.225 //y=0 //x2=18.3 //y2=0
r302 (  116 118 ) resistor r=39.7983 //w=0.357 //l=1.11 //layer=li \
 //thickness=0.1 //x=16.65 //y=0 //x2=17.76 //y2=0
r303 (  114 144 ) resistor r=2.94794 //w=0.34 //l=0.085 //layer=li \
 //thickness=0.1 //x=16.065 //y=0 //x2=15.98 //y2=0
r304 (  114 116 ) resistor r=20.9748 //w=0.357 //l=0.585 //layer=li \
 //thickness=0.1 //x=16.065 //y=0 //x2=16.65 //y2=0
r305 (  113 145 ) resistor r=5.4201 //w=0.34 //l=0.17 //layer=li \
 //thickness=0.1 //x=17.96 //y=0 //x2=18.13 //y2=0
r306 (  113 118 ) resistor r=7.17087 //w=0.357 //l=0.2 //layer=li \
 //thickness=0.1 //x=17.96 //y=0 //x2=17.76 //y2=0
r307 (  109 144 ) resistor r=4.11603 //w=0.68 //l=0.17 //layer=li \
 //thickness=0.1 //x=15.98 //y=0.17 //x2=15.98 //y2=0
r308 (  109 152 ) resistor r=53.7326 //w=0.187 //l=0.785 //layer=li \
 //thickness=0.1 //x=15.98 //y=0.17 //x2=15.98 //y2=0.955
r309 (  106 143 ) resistor r=5.4201 //w=0.34 //l=0.17 //layer=li \
 //thickness=0.1 //x=14.97 //y=0 //x2=14.8 //y2=0
r310 (  106 108 ) resistor r=20.437 //w=0.357 //l=0.57 //layer=li \
 //thickness=0.1 //x=14.97 //y=0 //x2=15.54 //y2=0
r311 (  105 144 ) resistor r=2.94794 //w=0.34 //l=0.085 //layer=li \
 //thickness=0.1 //x=15.895 //y=0 //x2=15.98 //y2=0
r312 (  105 108 ) resistor r=12.7283 //w=0.357 //l=0.355 //layer=li \
 //thickness=0.1 //x=15.895 //y=0 //x2=15.54 //y2=0
r313 (  100 102 ) resistor r=39.7983 //w=0.357 //l=1.11 //layer=li \
 //thickness=0.1 //x=12.95 //y=0 //x2=14.06 //y2=0
r314 (  98 142 ) resistor r=2.94794 //w=0.34 //l=0.085 //layer=li \
 //thickness=0.1 //x=12.735 //y=0 //x2=12.65 //y2=0
r315 (  98 100 ) resistor r=7.70868 //w=0.357 //l=0.215 //layer=li \
 //thickness=0.1 //x=12.735 //y=0 //x2=12.95 //y2=0
r316 (  97 143 ) resistor r=5.4201 //w=0.34 //l=0.17 //layer=li \
 //thickness=0.1 //x=14.63 //y=0 //x2=14.8 //y2=0
r317 (  97 102 ) resistor r=20.437 //w=0.357 //l=0.57 //layer=li \
 //thickness=0.1 //x=14.63 //y=0 //x2=14.06 //y2=0
r318 (  93 142 ) resistor r=4.11603 //w=0.68 //l=0.17 //layer=li \
 //thickness=0.1 //x=12.65 //y=0.17 //x2=12.65 //y2=0
r319 (  93 151 ) resistor r=53.7326 //w=0.187 //l=0.785 //layer=li \
 //thickness=0.1 //x=12.65 //y=0.17 //x2=12.65 //y2=0.955
r320 (  90 141 ) resistor r=5.4201 //w=0.34 //l=0.17 //layer=li \
 //thickness=0.1 //x=11.64 //y=0 //x2=11.47 //y2=0
r321 (  90 92 ) resistor r=7.17087 //w=0.357 //l=0.2 //layer=li \
 //thickness=0.1 //x=11.64 //y=0 //x2=11.84 //y2=0
r322 (  89 142 ) resistor r=2.94794 //w=0.34 //l=0.085 //layer=li \
 //thickness=0.1 //x=12.565 //y=0 //x2=12.65 //y2=0
r323 (  89 92 ) resistor r=25.9944 //w=0.357 //l=0.725 //layer=li \
 //thickness=0.1 //x=12.565 //y=0 //x2=11.84 //y2=0
r324 (  84 140 ) resistor r=2.94794 //w=0.34 //l=0.085 //layer=li \
 //thickness=0.1 //x=9.405 //y=0 //x2=9.32 //y2=0
r325 (  84 86 ) resistor r=34.2409 //w=0.357 //l=0.955 //layer=li \
 //thickness=0.1 //x=9.405 //y=0 //x2=10.36 //y2=0
r326 (  83 141 ) resistor r=5.4201 //w=0.34 //l=0.17 //layer=li \
 //thickness=0.1 //x=11.3 //y=0 //x2=11.47 //y2=0
r327 (  83 86 ) resistor r=33.7031 //w=0.357 //l=0.94 //layer=li \
 //thickness=0.1 //x=11.3 //y=0 //x2=10.36 //y2=0
r328 (  79 140 ) resistor r=4.11603 //w=0.68 //l=0.17 //layer=li \
 //thickness=0.1 //x=9.32 //y=0.17 //x2=9.32 //y2=0
r329 (  79 150 ) resistor r=53.7326 //w=0.187 //l=0.785 //layer=li \
 //thickness=0.1 //x=9.32 //y=0.17 //x2=9.32 //y2=0.955
r330 (  78 138 ) resistor r=5.4201 //w=0.34 //l=0.17 //layer=li \
 //thickness=0.1 //x=8.31 //y=0 //x2=8.14 //y2=0
r331 (  77 140 ) resistor r=2.94794 //w=0.34 //l=0.085 //layer=li \
 //thickness=0.1 //x=9.235 //y=0 //x2=9.32 //y2=0
r332 (  77 78 ) resistor r=33.1653 //w=0.357 //l=0.925 //layer=li \
 //thickness=0.1 //x=9.235 //y=0 //x2=8.31 //y2=0
r333 (  72 74 ) resistor r=39.7983 //w=0.357 //l=1.11 //layer=li \
 //thickness=0.1 //x=6.66 //y=0 //x2=7.77 //y2=0
r334 (  70 137 ) resistor r=2.94794 //w=0.34 //l=0.085 //layer=li \
 //thickness=0.1 //x=6.075 //y=0 //x2=5.99 //y2=0
r335 (  70 72 ) resistor r=20.9748 //w=0.357 //l=0.585 //layer=li \
 //thickness=0.1 //x=6.075 //y=0 //x2=6.66 //y2=0
r336 (  69 138 ) resistor r=5.4201 //w=0.34 //l=0.17 //layer=li \
 //thickness=0.1 //x=7.97 //y=0 //x2=8.14 //y2=0
r337 (  69 74 ) resistor r=7.17087 //w=0.357 //l=0.2 //layer=li \
 //thickness=0.1 //x=7.97 //y=0 //x2=7.77 //y2=0
r338 (  65 137 ) resistor r=4.11603 //w=0.68 //l=0.17 //layer=li \
 //thickness=0.1 //x=5.99 //y=0.17 //x2=5.99 //y2=0
r339 (  65 149 ) resistor r=53.7326 //w=0.187 //l=0.785 //layer=li \
 //thickness=0.1 //x=5.99 //y=0.17 //x2=5.99 //y2=0.955
r340 (  62 136 ) resistor r=5.4201 //w=0.34 //l=0.17 //layer=li \
 //thickness=0.1 //x=4.98 //y=0 //x2=4.81 //y2=0
r341 (  62 64 ) resistor r=20.437 //w=0.357 //l=0.57 //layer=li \
 //thickness=0.1 //x=4.98 //y=0 //x2=5.55 //y2=0
r342 (  61 137 ) resistor r=2.94794 //w=0.34 //l=0.085 //layer=li \
 //thickness=0.1 //x=5.905 //y=0 //x2=5.99 //y2=0
r343 (  61 64 ) resistor r=12.7283 //w=0.357 //l=0.355 //layer=li \
 //thickness=0.1 //x=5.905 //y=0 //x2=5.55 //y2=0
r344 (  56 58 ) resistor r=39.7983 //w=0.357 //l=1.11 //layer=li \
 //thickness=0.1 //x=2.96 //y=0 //x2=4.07 //y2=0
r345 (  54 56 ) resistor r=39.7983 //w=0.357 //l=1.11 //layer=li \
 //thickness=0.1 //x=1.85 //y=0 //x2=2.96 //y2=0
r346 (  52 135 ) resistor r=2.94794 //w=0.34 //l=0.085 //layer=li \
 //thickness=0.1 //x=1.16 //y=0 //x2=1.075 //y2=0
r347 (  52 54 ) resistor r=24.7395 //w=0.357 //l=0.69 //layer=li \
 //thickness=0.1 //x=1.16 //y=0 //x2=1.85 //y2=0
r348 (  51 136 ) resistor r=5.4201 //w=0.34 //l=0.17 //layer=li \
 //thickness=0.1 //x=4.64 //y=0 //x2=4.81 //y2=0
r349 (  51 58 ) resistor r=20.437 //w=0.357 //l=0.57 //layer=li \
 //thickness=0.1 //x=4.64 //y=0 //x2=4.07 //y2=0
r350 (  47 135 ) resistor r=4.11603 //w=0.68 //l=0.17 //layer=li \
 //thickness=0.1 //x=1.075 //y=0.17 //x2=1.075 //y2=0
r351 (  47 148 ) resistor r=54.4171 //w=0.187 //l=0.795 //layer=li \
 //thickness=0.1 //x=1.075 //y=0.17 //x2=1.075 //y2=0.965
r352 (  43 135 ) resistor r=2.94794 //w=0.34 //l=0.085 //layer=li \
 //thickness=0.1 //x=0.99 //y=0 //x2=1.075 //y2=0
r353 (  43 46 ) resistor r=8.96359 //w=0.357 //l=0.25 //layer=li \
 //thickness=0.1 //x=0.99 //y=0 //x2=0.74 //y2=0
r354 (  39 132 ) resistor r=9.3 //w=0.17 //l=0.17 //layer=mcon //count=1 \
 //x=21.09 //y=0 //x2=21.09 //y2=0
r355 (  37 130 ) resistor r=3.1 //w=0.17 //l=0.51 //layer=mcon //count=3 \
 //x=20.35 //y=0 //x2=20.35 //y2=0
r356 (  37 39 ) resistor r=0.307309 //w=0.301 //l=0.74 //layer=m1 \
 //thickness=0.36 //x=20.35 //y=0 //x2=21.09 //y2=0
r357 (  35 147 ) resistor r=3.1 //w=0.17 //l=0.51 //layer=mcon //count=3 \
 //x=19.24 //y=0 //x2=19.24 //y2=0
r358 (  35 37 ) resistor r=0.460963 //w=0.301 //l=1.11 //layer=m1 \
 //thickness=0.36 //x=19.24 //y=0 //x2=20.35 //y2=0
r359 (  33 118 ) resistor r=3.1 //w=0.17 //l=0.51 //layer=mcon //count=3 \
 //x=17.76 //y=0 //x2=17.76 //y2=0
r360 (  33 35 ) resistor r=0.614618 //w=0.301 //l=1.48 //layer=m1 \
 //thickness=0.36 //x=17.76 //y=0 //x2=19.24 //y2=0
r361 (  31 116 ) resistor r=3.1 //w=0.17 //l=0.51 //layer=mcon //count=3 \
 //x=16.65 //y=0 //x2=16.65 //y2=0
r362 (  31 33 ) resistor r=0.460963 //w=0.301 //l=1.11 //layer=m1 \
 //thickness=0.36 //x=16.65 //y=0 //x2=17.76 //y2=0
r363 (  29 108 ) resistor r=3.1 //w=0.17 //l=0.51 //layer=mcon //count=3 \
 //x=15.54 //y=0 //x2=15.54 //y2=0
r364 (  29 31 ) resistor r=0.460963 //w=0.301 //l=1.11 //layer=m1 \
 //thickness=0.36 //x=15.54 //y=0 //x2=16.65 //y2=0
r365 (  27 102 ) resistor r=3.1 //w=0.17 //l=0.51 //layer=mcon //count=3 \
 //x=14.06 //y=0 //x2=14.06 //y2=0
r366 (  27 29 ) resistor r=0.614618 //w=0.301 //l=1.48 //layer=m1 \
 //thickness=0.36 //x=14.06 //y=0 //x2=15.54 //y2=0
r367 (  25 100 ) resistor r=3.1 //w=0.17 //l=0.51 //layer=mcon //count=3 \
 //x=12.95 //y=0 //x2=12.95 //y2=0
r368 (  25 27 ) resistor r=0.460963 //w=0.301 //l=1.11 //layer=m1 \
 //thickness=0.36 //x=12.95 //y=0 //x2=14.06 //y2=0
r369 (  23 92 ) resistor r=3.1 //w=0.17 //l=0.51 //layer=mcon //count=3 \
 //x=11.84 //y=0 //x2=11.84 //y2=0
r370 (  23 25 ) resistor r=0.460963 //w=0.301 //l=1.11 //layer=m1 \
 //thickness=0.36 //x=11.84 //y=0 //x2=12.95 //y2=0
r371 (  20 86 ) resistor r=3.1 //w=0.17 //l=0.51 //layer=mcon //count=3 \
 //x=10.36 //y=0 //x2=10.36 //y2=0
r372 (  18 140 ) resistor r=3.1 //w=0.17 //l=0.51 //layer=mcon //count=3 \
 //x=9.25 //y=0 //x2=9.25 //y2=0
r373 (  18 20 ) resistor r=0.460963 //w=0.301 //l=1.11 //layer=m1 \
 //thickness=0.36 //x=9.25 //y=0 //x2=10.36 //y2=0
r374 (  16 74 ) resistor r=3.1 //w=0.17 //l=0.51 //layer=mcon //count=3 \
 //x=7.77 //y=0 //x2=7.77 //y2=0
r375 (  16 18 ) resistor r=0.614618 //w=0.301 //l=1.48 //layer=m1 \
 //thickness=0.36 //x=7.77 //y=0 //x2=9.25 //y2=0
r376 (  14 72 ) resistor r=3.1 //w=0.17 //l=0.51 //layer=mcon //count=3 \
 //x=6.66 //y=0 //x2=6.66 //y2=0
r377 (  14 16 ) resistor r=0.460963 //w=0.301 //l=1.11 //layer=m1 \
 //thickness=0.36 //x=6.66 //y=0 //x2=7.77 //y2=0
r378 (  12 64 ) resistor r=3.1 //w=0.17 //l=0.51 //layer=mcon //count=3 \
 //x=5.55 //y=0 //x2=5.55 //y2=0
r379 (  12 14 ) resistor r=0.460963 //w=0.301 //l=1.11 //layer=m1 \
 //thickness=0.36 //x=5.55 //y=0 //x2=6.66 //y2=0
r380 (  10 58 ) resistor r=3.1 //w=0.17 //l=0.51 //layer=mcon //count=3 \
 //x=4.07 //y=0 //x2=4.07 //y2=0
r381 (  10 12 ) resistor r=0.614618 //w=0.301 //l=1.48 //layer=m1 \
 //thickness=0.36 //x=4.07 //y=0 //x2=5.55 //y2=0
r382 (  8 56 ) resistor r=3.1 //w=0.17 //l=0.51 //layer=mcon //count=3 \
 //x=2.96 //y=0 //x2=2.96 //y2=0
r383 (  8 10 ) resistor r=0.460963 //w=0.301 //l=1.11 //layer=m1 \
 //thickness=0.36 //x=2.96 //y=0 //x2=4.07 //y2=0
r384 (  6 54 ) resistor r=3.1 //w=0.17 //l=0.51 //layer=mcon //count=3 \
 //x=1.85 //y=0 //x2=1.85 //y2=0
r385 (  6 8 ) resistor r=0.460963 //w=0.301 //l=1.11 //layer=m1 \
 //thickness=0.36 //x=1.85 //y=0 //x2=2.96 //y2=0
r386 (  3 46 ) resistor r=3.1 //w=0.17 //l=0.51 //layer=mcon //count=3 \
 //x=0.74 //y=0 //x2=0.74 //y2=0
r387 (  3 6 ) resistor r=0.460963 //w=0.301 //l=1.11 //layer=m1 \
 //thickness=0.36 //x=0.74 //y=0 //x2=1.85 //y2=0
r388 (  1 23 ) resistor r=0.460963 //w=0.301 //l=1.11 //layer=m1 \
 //thickness=0.36 //x=10.73 //y=0 //x2=11.84 //y2=0
r389 (  1 20 ) resistor r=0.153654 //w=0.301 //l=0.37 //layer=m1 \
 //thickness=0.36 //x=10.73 //y=0 //x2=10.36 //y2=0
ends PM_DFFQNX1\%GND

subckt PM_DFFQNX1\%VDD ( 1 39 46 53 63 71 81 87 95 103 113 119 127 137 147 151 \
 161 171 179 183 191 199 209 215 223 233 246 253 258 262 267 272 276 277 278 \
 279 280 281 282 283 284 285 286 287 288 289 290 291 292 293 294 )
c291 ( 294 0 ) capacitor c=0.0382077f //x=20.535 //y=5.02
c292 ( 293 0 ) capacitor c=0.0240874f //x=19.655 //y=5.02
c293 ( 292 0 ) capacitor c=0.0493657f //x=18.785 //y=5.02
c294 ( 291 0 ) capacitor c=0.0381505f //x=17.205 //y=5.02
c295 ( 290 0 ) capacitor c=0.0240879f //x=16.325 //y=5.02
c296 ( 289 0 ) capacitor c=0.0493657f //x=15.455 //y=5.02
c297 ( 288 0 ) capacitor c=0.038145f //x=13.875 //y=5.02
c298 ( 287 0 ) capacitor c=0.0240074f //x=12.995 //y=5.02
c299 ( 286 0 ) capacitor c=0.0490303f //x=12.125 //y=5.02
c300 ( 285 0 ) capacitor c=0.0380679f //x=10.545 //y=5.02
c301 ( 284 0 ) capacitor c=0.024008f //x=9.665 //y=5.02
c302 ( 283 0 ) capacitor c=0.0490303f //x=8.795 //y=5.02
c303 ( 282 0 ) capacitor c=0.0380679f //x=7.215 //y=5.02
c304 ( 281 0 ) capacitor c=0.024008f //x=6.335 //y=5.02
c305 ( 280 0 ) capacitor c=0.049209f //x=5.465 //y=5.02
c306 ( 279 0 ) capacitor c=0.0452179f //x=3.585 //y=5.02
c307 ( 278 0 ) capacitor c=0.024152f //x=2.705 //y=5.02
c308 ( 277 0 ) capacitor c=0.02424f //x=1.825 //y=5.02
c309 ( 276 0 ) capacitor c=0.0531407f //x=0.955 //y=5.02
c310 ( 275 0 ) capacitor c=0.00591168f //x=20.68 //y=7.4
c311 ( 274 0 ) capacitor c=0.00591168f //x=19.8 //y=7.4
c312 ( 273 0 ) capacitor c=0.00591168f //x=18.92 //y=7.4
c313 ( 272 0 ) capacitor c=0.116683f //x=18.13 //y=7.4
c314 ( 271 0 ) capacitor c=0.00591168f //x=17.35 //y=7.4
c315 ( 270 0 ) capacitor c=0.00591168f //x=16.47 //y=7.4
c316 ( 269 0 ) capacitor c=0.00591168f //x=15.54 //y=7.4
c317 ( 267 0 ) capacitor c=0.116163f //x=14.8 //y=7.4
c318 ( 266 0 ) capacitor c=0.00591168f //x=14.06 //y=7.4
c319 ( 264 0 ) capacitor c=0.00591168f //x=13.14 //y=7.4
c320 ( 263 0 ) capacitor c=0.00591168f //x=12.26 //y=7.4
c321 ( 262 0 ) capacitor c=0.114361f //x=11.47 //y=7.4
c322 ( 261 0 ) capacitor c=0.00591168f //x=10.69 //y=7.4
c323 ( 260 0 ) capacitor c=0.00591168f //x=9.81 //y=7.4
c324 ( 259 0 ) capacitor c=0.00591168f //x=8.93 //y=7.4
c325 ( 258 0 ) capacitor c=0.11449f //x=8.14 //y=7.4
c326 ( 257 0 ) capacitor c=0.00591168f //x=7.36 //y=7.4
c327 ( 256 0 ) capacitor c=0.00591168f //x=6.48 //y=7.4
c328 ( 255 0 ) capacitor c=0.00591168f //x=5.55 //y=7.4
c329 ( 253 0 ) capacitor c=0.13457f //x=4.81 //y=7.4
c330 ( 252 0 ) capacitor c=0.00591168f //x=3.73 //y=7.4
c331 ( 251 0 ) capacitor c=0.00591168f //x=2.85 //y=7.4
c332 ( 250 0 ) capacitor c=0.00591168f //x=1.97 //y=7.4
c333 ( 249 0 ) capacitor c=0.00591168f //x=1.09 //y=7.4
c334 ( 246 0 ) capacitor c=0.237727f //x=21.09 //y=7.4
c335 ( 233 0 ) capacitor c=0.0284327f //x=20.595 //y=7.4
c336 ( 223 0 ) capacitor c=0.0288633f //x=19.715 //y=7.4
c337 ( 215 0 ) capacitor c=0.0240981f //x=18.835 //y=7.4
c338 ( 209 0 ) capacitor c=0.0236224f //x=17.96 //y=7.4
c339 ( 199 0 ) capacitor c=0.0288639f //x=17.265 //y=7.4
c340 ( 191 0 ) capacitor c=0.0288633f //x=16.385 //y=7.4
c341 ( 183 0 ) capacitor c=0.0240981f //x=15.505 //y=7.4
c342 ( 179 0 ) capacitor c=0.0236947f //x=14.63 //y=7.4
c343 ( 171 0 ) capacitor c=0.0288598f //x=13.935 //y=7.4
c344 ( 161 0 ) capacitor c=0.0288369f //x=13.055 //y=7.4
c345 ( 151 0 ) capacitor c=0.0240981f //x=12.175 //y=7.4
c346 ( 147 0 ) capacitor c=0.0236224f //x=11.3 //y=7.4
c347 ( 137 0 ) capacitor c=0.0288359f //x=10.605 //y=7.4
c348 ( 127 0 ) capacitor c=0.0288369f //x=9.725 //y=7.4
c349 ( 119 0 ) capacitor c=0.0240981f //x=8.845 //y=7.4
c350 ( 113 0 ) capacitor c=0.0236224f //x=7.97 //y=7.4
c351 ( 103 0 ) capacitor c=0.0288359f //x=7.275 //y=7.4
c352 ( 95 0 ) capacitor c=0.0288369f //x=6.395 //y=7.4
c353 ( 87 0 ) capacitor c=0.0240981f //x=5.515 //y=7.4
c354 ( 81 0 ) capacitor c=0.0394667f //x=4.64 //y=7.4
c355 ( 71 0 ) capacitor c=0.0288488f //x=3.645 //y=7.4
c356 ( 63 0 ) capacitor c=0.0287505f //x=2.765 //y=7.4
c357 ( 53 0 ) capacitor c=0.028511f //x=1.885 //y=7.4
c358 ( 46 0 ) capacitor c=0.234426f //x=0.74 //y=7.4
c359 ( 43 0 ) capacitor c=0.0452081f //x=1.005 //y=7.4
c360 ( 39 0 ) capacitor c=0.745491f //x=21.09 //y=7.4
r361 (  244 275 ) resistor r=2.94794 //w=0.34 //l=0.085 //layer=li \
 //thickness=0.1 //x=20.765 //y=7.4 //x2=20.68 //y2=7.4
r362 (  244 246 ) resistor r=11.6527 //w=0.357 //l=0.325 //layer=li \
 //thickness=0.1 //x=20.765 //y=7.4 //x2=21.09 //y2=7.4
r363 (  237 275 ) resistor r=4.11603 //w=0.68 //l=0.17 //layer=li \
 //thickness=0.1 //x=20.68 //y=7.23 //x2=20.68 //y2=7.4
r364 (  237 294 ) resistor r=33.1979 //w=0.187 //l=0.485 //layer=li \
 //thickness=0.1 //x=20.68 //y=7.23 //x2=20.68 //y2=6.745
r365 (  234 274 ) resistor r=2.94794 //w=0.34 //l=0.085 //layer=li \
 //thickness=0.1 //x=19.885 //y=7.4 //x2=19.8 //y2=7.4
r366 (  234 236 ) resistor r=16.6723 //w=0.357 //l=0.465 //layer=li \
 //thickness=0.1 //x=19.885 //y=7.4 //x2=20.35 //y2=7.4
r367 (  233 275 ) resistor r=2.94794 //w=0.34 //l=0.085 //layer=li \
 //thickness=0.1 //x=20.595 //y=7.4 //x2=20.68 //y2=7.4
r368 (  233 236 ) resistor r=8.78431 //w=0.357 //l=0.245 //layer=li \
 //thickness=0.1 //x=20.595 //y=7.4 //x2=20.35 //y2=7.4
r369 (  227 274 ) resistor r=4.11603 //w=0.68 //l=0.17 //layer=li \
 //thickness=0.1 //x=19.8 //y=7.23 //x2=19.8 //y2=7.4
r370 (  227 293 ) resistor r=33.1979 //w=0.187 //l=0.485 //layer=li \
 //thickness=0.1 //x=19.8 //y=7.23 //x2=19.8 //y2=6.745
r371 (  224 273 ) resistor r=2.94794 //w=0.34 //l=0.085 //layer=li \
 //thickness=0.1 //x=19.005 //y=7.4 //x2=18.92 //y2=7.4
r372 (  224 226 ) resistor r=8.42577 //w=0.357 //l=0.235 //layer=li \
 //thickness=0.1 //x=19.005 //y=7.4 //x2=19.24 //y2=7.4
r373 (  223 274 ) resistor r=2.94794 //w=0.34 //l=0.085 //layer=li \
 //thickness=0.1 //x=19.715 //y=7.4 //x2=19.8 //y2=7.4
r374 (  223 226 ) resistor r=17.0308 //w=0.357 //l=0.475 //layer=li \
 //thickness=0.1 //x=19.715 //y=7.4 //x2=19.24 //y2=7.4
r375 (  217 273 ) resistor r=4.11603 //w=0.68 //l=0.17 //layer=li \
 //thickness=0.1 //x=18.92 //y=7.23 //x2=18.92 //y2=7.4
r376 (  217 292 ) resistor r=56.4706 //w=0.187 //l=0.825 //layer=li \
 //thickness=0.1 //x=18.92 //y=7.23 //x2=18.92 //y2=6.405
r377 (  216 272 ) resistor r=5.4201 //w=0.34 //l=0.17 //layer=li \
 //thickness=0.1 //x=18.3 //y=7.4 //x2=18.13 //y2=7.4
r378 (  215 273 ) resistor r=2.94794 //w=0.34 //l=0.085 //layer=li \
 //thickness=0.1 //x=18.835 //y=7.4 //x2=18.92 //y2=7.4
r379 (  215 216 ) resistor r=19.1821 //w=0.357 //l=0.535 //layer=li \
 //thickness=0.1 //x=18.835 //y=7.4 //x2=18.3 //y2=7.4
r380 (  210 271 ) resistor r=2.94794 //w=0.34 //l=0.085 //layer=li \
 //thickness=0.1 //x=17.435 //y=7.4 //x2=17.35 //y2=7.4
r381 (  210 212 ) resistor r=11.6527 //w=0.357 //l=0.325 //layer=li \
 //thickness=0.1 //x=17.435 //y=7.4 //x2=17.76 //y2=7.4
r382 (  209 272 ) resistor r=5.4201 //w=0.34 //l=0.17 //layer=li \
 //thickness=0.1 //x=17.96 //y=7.4 //x2=18.13 //y2=7.4
r383 (  209 212 ) resistor r=7.17087 //w=0.357 //l=0.2 //layer=li \
 //thickness=0.1 //x=17.96 //y=7.4 //x2=17.76 //y2=7.4
r384 (  203 271 ) resistor r=4.11603 //w=0.68 //l=0.17 //layer=li \
 //thickness=0.1 //x=17.35 //y=7.23 //x2=17.35 //y2=7.4
r385 (  203 291 ) resistor r=33.1979 //w=0.187 //l=0.485 //layer=li \
 //thickness=0.1 //x=17.35 //y=7.23 //x2=17.35 //y2=6.745
r386 (  200 270 ) resistor r=2.94794 //w=0.34 //l=0.085 //layer=li \
 //thickness=0.1 //x=16.555 //y=7.4 //x2=16.47 //y2=7.4
r387 (  200 202 ) resistor r=3.40616 //w=0.357 //l=0.095 //layer=li \
 //thickness=0.1 //x=16.555 //y=7.4 //x2=16.65 //y2=7.4
r388 (  199 271 ) resistor r=2.94794 //w=0.34 //l=0.085 //layer=li \
 //thickness=0.1 //x=17.265 //y=7.4 //x2=17.35 //y2=7.4
r389 (  199 202 ) resistor r=22.0504 //w=0.357 //l=0.615 //layer=li \
 //thickness=0.1 //x=17.265 //y=7.4 //x2=16.65 //y2=7.4
r390 (  193 270 ) resistor r=4.11603 //w=0.68 //l=0.17 //layer=li \
 //thickness=0.1 //x=16.47 //y=7.23 //x2=16.47 //y2=7.4
r391 (  193 290 ) resistor r=33.1979 //w=0.187 //l=0.485 //layer=li \
 //thickness=0.1 //x=16.47 //y=7.23 //x2=16.47 //y2=6.745
r392 (  192 269 ) resistor r=2.94794 //w=0.34 //l=0.085 //layer=li \
 //thickness=0.1 //x=15.675 //y=7.4 //x2=15.59 //y2=7.4
r393 (  191 270 ) resistor r=2.94794 //w=0.34 //l=0.085 //layer=li \
 //thickness=0.1 //x=16.385 //y=7.4 //x2=16.47 //y2=7.4
r394 (  191 192 ) resistor r=25.4566 //w=0.357 //l=0.71 //layer=li \
 //thickness=0.1 //x=16.385 //y=7.4 //x2=15.675 //y2=7.4
r395 (  185 269 ) resistor r=4.11603 //w=0.68 //l=0.17 //layer=li \
 //thickness=0.1 //x=15.59 //y=7.23 //x2=15.59 //y2=7.4
r396 (  185 289 ) resistor r=56.4706 //w=0.187 //l=0.825 //layer=li \
 //thickness=0.1 //x=15.59 //y=7.23 //x2=15.59 //y2=6.405
r397 (  184 267 ) resistor r=5.4201 //w=0.34 //l=0.17 //layer=li \
 //thickness=0.1 //x=14.97 //y=7.4 //x2=14.8 //y2=7.4
r398 (  183 269 ) resistor r=2.94794 //w=0.34 //l=0.085 //layer=li \
 //thickness=0.1 //x=15.505 //y=7.4 //x2=15.59 //y2=7.4
r399 (  183 184 ) resistor r=19.1821 //w=0.357 //l=0.535 //layer=li \
 //thickness=0.1 //x=15.505 //y=7.4 //x2=14.97 //y2=7.4
r400 (  180 266 ) resistor r=2.94794 //w=0.34 //l=0.085 //layer=li \
 //thickness=0.1 //x=14.105 //y=7.4 //x2=14.02 //y2=7.4
r401 (  179 267 ) resistor r=5.4201 //w=0.34 //l=0.17 //layer=li \
 //thickness=0.1 //x=14.63 //y=7.4 //x2=14.8 //y2=7.4
r402 (  179 180 ) resistor r=18.8235 //w=0.357 //l=0.525 //layer=li \
 //thickness=0.1 //x=14.63 //y=7.4 //x2=14.105 //y2=7.4
r403 (  173 266 ) resistor r=4.11603 //w=0.68 //l=0.17 //layer=li \
 //thickness=0.1 //x=14.02 //y=7.23 //x2=14.02 //y2=7.4
r404 (  173 288 ) resistor r=33.1979 //w=0.187 //l=0.485 //layer=li \
 //thickness=0.1 //x=14.02 //y=7.23 //x2=14.02 //y2=6.745
r405 (  172 264 ) resistor r=2.94794 //w=0.34 //l=0.085 //layer=li \
 //thickness=0.1 //x=13.225 //y=7.4 //x2=13.14 //y2=7.4
r406 (  171 266 ) resistor r=2.94794 //w=0.34 //l=0.085 //layer=li \
 //thickness=0.1 //x=13.935 //y=7.4 //x2=14.02 //y2=7.4
r407 (  171 172 ) resistor r=25.4566 //w=0.357 //l=0.71 //layer=li \
 //thickness=0.1 //x=13.935 //y=7.4 //x2=13.225 //y2=7.4
r408 (  165 264 ) resistor r=4.11603 //w=0.68 //l=0.17 //layer=li \
 //thickness=0.1 //x=13.14 //y=7.23 //x2=13.14 //y2=7.4
r409 (  165 287 ) resistor r=33.1979 //w=0.187 //l=0.485 //layer=li \
 //thickness=0.1 //x=13.14 //y=7.23 //x2=13.14 //y2=6.745
r410 (  162 263 ) resistor r=2.94794 //w=0.34 //l=0.085 //layer=li \
 //thickness=0.1 //x=12.345 //y=7.4 //x2=12.26 //y2=7.4
r411 (  162 164 ) resistor r=21.6919 //w=0.357 //l=0.605 //layer=li \
 //thickness=0.1 //x=12.345 //y=7.4 //x2=12.95 //y2=7.4
r412 (  161 264 ) resistor r=2.94794 //w=0.34 //l=0.085 //layer=li \
 //thickness=0.1 //x=13.055 //y=7.4 //x2=13.14 //y2=7.4
r413 (  161 164 ) resistor r=3.76471 //w=0.357 //l=0.105 //layer=li \
 //thickness=0.1 //x=13.055 //y=7.4 //x2=12.95 //y2=7.4
r414 (  155 263 ) resistor r=4.11603 //w=0.68 //l=0.17 //layer=li \
 //thickness=0.1 //x=12.26 //y=7.23 //x2=12.26 //y2=7.4
r415 (  155 286 ) resistor r=56.4706 //w=0.187 //l=0.825 //layer=li \
 //thickness=0.1 //x=12.26 //y=7.23 //x2=12.26 //y2=6.405
r416 (  152 262 ) resistor r=5.4201 //w=0.34 //l=0.17 //layer=li \
 //thickness=0.1 //x=11.64 //y=7.4 //x2=11.47 //y2=7.4
r417 (  152 154 ) resistor r=7.17087 //w=0.357 //l=0.2 //layer=li \
 //thickness=0.1 //x=11.64 //y=7.4 //x2=11.84 //y2=7.4
r418 (  151 263 ) resistor r=2.94794 //w=0.34 //l=0.085 //layer=li \
 //thickness=0.1 //x=12.175 //y=7.4 //x2=12.26 //y2=7.4
r419 (  151 154 ) resistor r=12.0112 //w=0.357 //l=0.335 //layer=li \
 //thickness=0.1 //x=12.175 //y=7.4 //x2=11.84 //y2=7.4
r420 (  148 261 ) resistor r=2.94794 //w=0.34 //l=0.085 //layer=li \
 //thickness=0.1 //x=10.775 //y=7.4 //x2=10.69 //y2=7.4
r421 (  147 262 ) resistor r=5.4201 //w=0.34 //l=0.17 //layer=li \
 //thickness=0.1 //x=11.3 //y=7.4 //x2=11.47 //y2=7.4
r422 (  147 148 ) resistor r=18.8235 //w=0.357 //l=0.525 //layer=li \
 //thickness=0.1 //x=11.3 //y=7.4 //x2=10.775 //y2=7.4
r423 (  141 261 ) resistor r=4.11603 //w=0.68 //l=0.17 //layer=li \
 //thickness=0.1 //x=10.69 //y=7.23 //x2=10.69 //y2=7.4
r424 (  141 285 ) resistor r=33.1979 //w=0.187 //l=0.485 //layer=li \
 //thickness=0.1 //x=10.69 //y=7.23 //x2=10.69 //y2=6.745
r425 (  138 260 ) resistor r=2.94794 //w=0.34 //l=0.085 //layer=li \
 //thickness=0.1 //x=9.895 //y=7.4 //x2=9.81 //y2=7.4
r426 (  138 140 ) resistor r=16.6723 //w=0.357 //l=0.465 //layer=li \
 //thickness=0.1 //x=9.895 //y=7.4 //x2=10.36 //y2=7.4
r427 (  137 261 ) resistor r=2.94794 //w=0.34 //l=0.085 //layer=li \
 //thickness=0.1 //x=10.605 //y=7.4 //x2=10.69 //y2=7.4
r428 (  137 140 ) resistor r=8.78431 //w=0.357 //l=0.245 //layer=li \
 //thickness=0.1 //x=10.605 //y=7.4 //x2=10.36 //y2=7.4
r429 (  131 260 ) resistor r=4.11603 //w=0.68 //l=0.17 //layer=li \
 //thickness=0.1 //x=9.81 //y=7.23 //x2=9.81 //y2=7.4
r430 (  131 284 ) resistor r=33.1979 //w=0.187 //l=0.485 //layer=li \
 //thickness=0.1 //x=9.81 //y=7.23 //x2=9.81 //y2=6.745
r431 (  128 259 ) resistor r=2.94794 //w=0.34 //l=0.085 //layer=li \
 //thickness=0.1 //x=9.015 //y=7.4 //x2=8.93 //y2=7.4
r432 (  128 130 ) resistor r=8.42577 //w=0.357 //l=0.235 //layer=li \
 //thickness=0.1 //x=9.015 //y=7.4 //x2=9.25 //y2=7.4
r433 (  127 260 ) resistor r=2.94794 //w=0.34 //l=0.085 //layer=li \
 //thickness=0.1 //x=9.725 //y=7.4 //x2=9.81 //y2=7.4
r434 (  127 130 ) resistor r=17.0308 //w=0.357 //l=0.475 //layer=li \
 //thickness=0.1 //x=9.725 //y=7.4 //x2=9.25 //y2=7.4
r435 (  121 259 ) resistor r=4.11603 //w=0.68 //l=0.17 //layer=li \
 //thickness=0.1 //x=8.93 //y=7.23 //x2=8.93 //y2=7.4
r436 (  121 283 ) resistor r=56.4706 //w=0.187 //l=0.825 //layer=li \
 //thickness=0.1 //x=8.93 //y=7.23 //x2=8.93 //y2=6.405
r437 (  120 258 ) resistor r=5.4201 //w=0.34 //l=0.17 //layer=li \
 //thickness=0.1 //x=8.31 //y=7.4 //x2=8.14 //y2=7.4
r438 (  119 259 ) resistor r=2.94794 //w=0.34 //l=0.085 //layer=li \
 //thickness=0.1 //x=8.845 //y=7.4 //x2=8.93 //y2=7.4
r439 (  119 120 ) resistor r=19.1821 //w=0.357 //l=0.535 //layer=li \
 //thickness=0.1 //x=8.845 //y=7.4 //x2=8.31 //y2=7.4
r440 (  114 257 ) resistor r=2.94794 //w=0.34 //l=0.085 //layer=li \
 //thickness=0.1 //x=7.445 //y=7.4 //x2=7.36 //y2=7.4
r441 (  114 116 ) resistor r=11.6527 //w=0.357 //l=0.325 //layer=li \
 //thickness=0.1 //x=7.445 //y=7.4 //x2=7.77 //y2=7.4
r442 (  113 258 ) resistor r=5.4201 //w=0.34 //l=0.17 //layer=li \
 //thickness=0.1 //x=7.97 //y=7.4 //x2=8.14 //y2=7.4
r443 (  113 116 ) resistor r=7.17087 //w=0.357 //l=0.2 //layer=li \
 //thickness=0.1 //x=7.97 //y=7.4 //x2=7.77 //y2=7.4
r444 (  107 257 ) resistor r=4.11603 //w=0.68 //l=0.17 //layer=li \
 //thickness=0.1 //x=7.36 //y=7.23 //x2=7.36 //y2=7.4
r445 (  107 282 ) resistor r=33.1979 //w=0.187 //l=0.485 //layer=li \
 //thickness=0.1 //x=7.36 //y=7.23 //x2=7.36 //y2=6.745
r446 (  104 256 ) resistor r=2.94794 //w=0.34 //l=0.085 //layer=li \
 //thickness=0.1 //x=6.565 //y=7.4 //x2=6.48 //y2=7.4
r447 (  104 106 ) resistor r=3.40616 //w=0.357 //l=0.095 //layer=li \
 //thickness=0.1 //x=6.565 //y=7.4 //x2=6.66 //y2=7.4
r448 (  103 257 ) resistor r=2.94794 //w=0.34 //l=0.085 //layer=li \
 //thickness=0.1 //x=7.275 //y=7.4 //x2=7.36 //y2=7.4
r449 (  103 106 ) resistor r=22.0504 //w=0.357 //l=0.615 //layer=li \
 //thickness=0.1 //x=7.275 //y=7.4 //x2=6.66 //y2=7.4
r450 (  97 256 ) resistor r=4.11603 //w=0.68 //l=0.17 //layer=li \
 //thickness=0.1 //x=6.48 //y=7.23 //x2=6.48 //y2=7.4
r451 (  97 281 ) resistor r=33.1979 //w=0.187 //l=0.485 //layer=li \
 //thickness=0.1 //x=6.48 //y=7.23 //x2=6.48 //y2=6.745
r452 (  96 255 ) resistor r=2.94794 //w=0.34 //l=0.085 //layer=li \
 //thickness=0.1 //x=5.685 //y=7.4 //x2=5.6 //y2=7.4
r453 (  95 256 ) resistor r=2.94794 //w=0.34 //l=0.085 //layer=li \
 //thickness=0.1 //x=6.395 //y=7.4 //x2=6.48 //y2=7.4
r454 (  95 96 ) resistor r=25.4566 //w=0.357 //l=0.71 //layer=li \
 //thickness=0.1 //x=6.395 //y=7.4 //x2=5.685 //y2=7.4
r455 (  89 255 ) resistor r=4.11603 //w=0.68 //l=0.17 //layer=li \
 //thickness=0.1 //x=5.6 //y=7.23 //x2=5.6 //y2=7.4
r456 (  89 280 ) resistor r=56.4706 //w=0.187 //l=0.825 //layer=li \
 //thickness=0.1 //x=5.6 //y=7.23 //x2=5.6 //y2=6.405
r457 (  88 253 ) resistor r=5.4201 //w=0.34 //l=0.17 //layer=li \
 //thickness=0.1 //x=4.98 //y=7.4 //x2=4.81 //y2=7.4
r458 (  87 255 ) resistor r=2.94794 //w=0.34 //l=0.085 //layer=li \
 //thickness=0.1 //x=5.515 //y=7.4 //x2=5.6 //y2=7.4
r459 (  87 88 ) resistor r=19.1821 //w=0.357 //l=0.535 //layer=li \
 //thickness=0.1 //x=5.515 //y=7.4 //x2=4.98 //y2=7.4
r460 (  82 252 ) resistor r=2.94794 //w=0.34 //l=0.085 //layer=li \
 //thickness=0.1 //x=3.815 //y=7.4 //x2=3.73 //y2=7.4
r461 (  82 84 ) resistor r=9.14286 //w=0.357 //l=0.255 //layer=li \
 //thickness=0.1 //x=3.815 //y=7.4 //x2=4.07 //y2=7.4