// File: dffrnx1_pcell.spi.DFFRNX1_PCELL.pxi
// Created: Tue Oct 15 15:55:51 2024
// 
simulator lang=spectre
x_PM_DFFRNX1_PCELL\%noxref_1 ( N_noxref_1_c_8_p N_noxref_1_c_100_p \
 N_noxref_1_c_1_p N_noxref_1_c_9_p N_noxref_1_c_10_p N_noxref_1_c_58_p \
 N_noxref_1_c_17_p N_noxref_1_c_24_p N_noxref_1_c_32_p N_noxref_1_c_39_p \
 N_noxref_1_c_61_p N_noxref_1_c_68_p N_noxref_1_c_255_p N_noxref_1_c_2_p \
 N_noxref_1_c_3_p N_noxref_1_c_4_p N_noxref_1_c_5_p N_noxref_1_c_6_p \
 N_noxref_1_c_7_p N_noxref_1_M0_noxref_d N_noxref_1_M3_noxref_d \
 N_noxref_1_M6_noxref_d N_noxref_1_M8_noxref_d N_noxref_1_M11_noxref_d \
 N_noxref_1_M14_noxref_d )  PM_DFFRNX1_PCELL\%noxref_1
x_PM_DFFRNX1_PCELL\%noxref_2 ( N_noxref_2_c_295_p N_noxref_2_c_287_n \
 N_noxref_2_c_399_p N_noxref_2_c_390_p N_noxref_2_c_313_p N_noxref_2_c_369_p \
 N_noxref_2_c_370_p N_noxref_2_c_296_p N_noxref_2_c_297_p N_noxref_2_c_303_p \
 N_noxref_2_c_307_p N_noxref_2_c_373_p N_noxref_2_c_311_p N_noxref_2_c_339_p \
 N_noxref_2_c_375_p N_noxref_2_c_376_p N_noxref_2_c_351_p N_noxref_2_c_394_p \
 N_noxref_2_c_454_p N_noxref_2_c_472_p N_noxref_2_c_473_p N_noxref_2_c_423_p \
 N_noxref_2_c_458_p N_noxref_2_c_545_p N_noxref_2_c_475_p N_noxref_2_c_476_p \
 N_noxref_2_c_477_p N_noxref_2_c_516_p N_noxref_2_c_288_n N_noxref_2_c_289_n \
 N_noxref_2_c_290_n N_noxref_2_c_291_n N_noxref_2_c_292_n N_noxref_2_c_293_n \
 N_noxref_2_M16_noxref_s N_noxref_2_M17_noxref_d N_noxref_2_M19_noxref_d \
 N_noxref_2_M21_noxref_d N_noxref_2_M22_noxref_s N_noxref_2_M23_noxref_d \
 N_noxref_2_M25_noxref_d N_noxref_2_M27_noxref_d N_noxref_2_M28_noxref_s \
 N_noxref_2_M29_noxref_d N_noxref_2_M31_noxref_d N_noxref_2_M32_noxref_s \
 N_noxref_2_M33_noxref_d N_noxref_2_M35_noxref_d N_noxref_2_M37_noxref_d \
 N_noxref_2_M38_noxref_s N_noxref_2_M39_noxref_d N_noxref_2_M41_noxref_d \
 N_noxref_2_M43_noxref_d N_noxref_2_M44_noxref_s N_noxref_2_M45_noxref_d \
 N_noxref_2_M47_noxref_d )  PM_DFFRNX1_PCELL\%noxref_2
x_PM_DFFRNX1_PCELL\%noxref_3 ( N_noxref_3_c_608_n N_noxref_3_c_612_n \
 N_noxref_3_c_613_n N_noxref_3_c_711_p N_noxref_3_c_614_n N_noxref_3_c_629_n \
 N_noxref_3_c_633_n N_noxref_3_c_635_n N_noxref_3_c_639_n N_noxref_3_c_615_n \
 N_noxref_3_c_749_p N_noxref_3_c_643_n N_noxref_3_c_616_n N_noxref_3_c_828_p \
 N_noxref_3_c_759_p N_noxref_3_M2_noxref_g N_noxref_3_M6_noxref_g \
 N_noxref_3_M20_noxref_g N_noxref_3_M21_noxref_g N_noxref_3_M28_noxref_g \
 N_noxref_3_M29_noxref_g N_noxref_3_c_697_p N_noxref_3_c_698_p \
 N_noxref_3_c_699_p N_noxref_3_c_739_p N_noxref_3_c_719_p N_noxref_3_c_741_p \
 N_noxref_3_c_720_p N_noxref_3_c_617_n N_noxref_3_c_619_n N_noxref_3_c_620_n \
 N_noxref_3_c_621_n N_noxref_3_c_622_n N_noxref_3_c_623_n N_noxref_3_c_624_n \
 N_noxref_3_c_626_n N_noxref_3_c_692_p N_noxref_3_c_702_p N_noxref_3_c_687_p \
 N_noxref_3_c_655_n N_noxref_3_M5_noxref_d N_noxref_3_M22_noxref_d \
 N_noxref_3_M24_noxref_d N_noxref_3_M26_noxref_d )  PM_DFFRNX1_PCELL\%noxref_3
x_PM_DFFRNX1_PCELL\%noxref_4 ( N_noxref_4_c_854_n N_noxref_4_c_902_n \
 N_noxref_4_c_871_n N_noxref_4_c_875_n N_noxref_4_c_877_n N_noxref_4_c_855_n \
 N_noxref_4_c_943_p N_noxref_4_c_856_n N_noxref_4_c_857_n N_noxref_4_c_970_p \
 N_noxref_4_M8_noxref_g N_noxref_4_M32_noxref_g N_noxref_4_M33_noxref_g \
 N_noxref_4_c_858_n N_noxref_4_c_860_n N_noxref_4_c_861_n N_noxref_4_c_862_n \
 N_noxref_4_c_863_n N_noxref_4_c_864_n N_noxref_4_c_865_n N_noxref_4_c_867_n \
 N_noxref_4_c_919_p N_noxref_4_c_889_n N_noxref_4_M7_noxref_d \
 N_noxref_4_M28_noxref_d N_noxref_4_M30_noxref_d )  PM_DFFRNX1_PCELL\%noxref_4
x_PM_DFFRNX1_PCELL\%noxref_5 ( N_noxref_5_c_1003_n N_noxref_5_c_1020_n \
 N_noxref_5_c_1001_n N_noxref_5_c_1002_n N_noxref_5_M1_noxref_g \
 N_noxref_5_M9_noxref_g N_noxref_5_M18_noxref_g N_noxref_5_M19_noxref_g \
 N_noxref_5_M34_noxref_g N_noxref_5_M35_noxref_g N_noxref_5_c_1155_p \
 N_noxref_5_c_1157_p N_noxref_5_c_1181_p N_noxref_5_c_1188_p \
 N_noxref_5_c_1051_n N_noxref_5_c_1052_n N_noxref_5_c_1053_n \
 N_noxref_5_c_1054_n N_noxref_5_c_1057_n N_noxref_5_c_1074_n \
 N_noxref_5_c_1077_n N_noxref_5_c_1204_p N_noxref_5_c_1211_p \
 N_noxref_5_c_1079_n N_noxref_5_c_1080_n N_noxref_5_c_1081_n \
 N_noxref_5_c_1082_n N_noxref_5_c_1126_p N_noxref_5_c_1058_n \
 N_noxref_5_c_1084_n )  PM_DFFRNX1_PCELL\%noxref_5
x_PM_DFFRNX1_PCELL\%noxref_6 ( N_noxref_6_c_1289_n N_noxref_6_c_1290_n \
 N_noxref_6_c_1216_n N_noxref_6_c_1297_n N_noxref_6_c_1241_n \
 N_noxref_6_c_1245_n N_noxref_6_c_1247_n N_noxref_6_c_1251_n \
 N_noxref_6_c_1217_n N_noxref_6_c_1304_n N_noxref_6_c_1255_n \
 N_noxref_6_c_1218_n N_noxref_6_c_1219_n N_noxref_6_c_1347_n \
 N_noxref_6_c_1313_n N_noxref_6_M3_noxref_g N_noxref_6_M11_noxref_g \
 N_noxref_6_M22_noxref_g N_noxref_6_M23_noxref_g N_noxref_6_M38_noxref_g \
 N_noxref_6_M39_noxref_g N_noxref_6_c_1220_n N_noxref_6_c_1222_n \
 N_noxref_6_c_1223_n N_noxref_6_c_1224_n N_noxref_6_c_1225_n \
 N_noxref_6_c_1226_n N_noxref_6_c_1227_n N_noxref_6_c_1229_n \
 N_noxref_6_c_1318_n N_noxref_6_c_1270_n N_noxref_6_c_1230_n \
 N_noxref_6_c_1232_n N_noxref_6_c_1233_n N_noxref_6_c_1234_n \
 N_noxref_6_c_1235_n N_noxref_6_c_1236_n N_noxref_6_c_1237_n \
 N_noxref_6_c_1239_n N_noxref_6_c_1365_p N_noxref_6_c_1272_n \
 N_noxref_6_M2_noxref_d N_noxref_6_M16_noxref_d N_noxref_6_M18_noxref_d \
 N_noxref_6_M20_noxref_d )  PM_DFFRNX1_PCELL\%noxref_6
x_PM_DFFRNX1_PCELL\%noxref_7 ( N_noxref_7_c_1461_n N_noxref_7_c_1469_n \
 N_noxref_7_c_1471_n N_noxref_7_c_1475_n N_noxref_7_c_1476_n \
 N_noxref_7_c_1477_n N_noxref_7_c_1478_n N_noxref_7_M5_noxref_g \
 N_noxref_7_M10_noxref_g N_noxref_7_M12_noxref_g N_noxref_7_M26_noxref_g \
 N_noxref_7_M27_noxref_g N_noxref_7_M36_noxref_g N_noxref_7_M37_noxref_g \
 N_noxref_7_M40_noxref_g N_noxref_7_M41_noxref_g N_noxref_7_c_1513_n \
 N_noxref_7_c_1514_n N_noxref_7_c_1515_n N_noxref_7_c_1516_n \
 N_noxref_7_c_1517_n N_noxref_7_c_1519_n N_noxref_7_c_1520_n \
 N_noxref_7_c_1547_n N_noxref_7_c_1548_n N_noxref_7_c_1549_n \
 N_noxref_7_c_1623_p N_noxref_7_c_1606_p N_noxref_7_c_1625_p \
 N_noxref_7_c_1607_p N_noxref_7_c_1575_n N_noxref_7_c_1578_n \
 N_noxref_7_c_1717_p N_noxref_7_c_1724_p N_noxref_7_c_1580_n \
 N_noxref_7_c_1581_n N_noxref_7_c_1582_n N_noxref_7_c_1583_n \
 N_noxref_7_c_1598_p N_noxref_7_c_1522_n N_noxref_7_c_1523_n \
 N_noxref_7_c_1525_n N_noxref_7_c_1551_n N_noxref_7_c_1553_n \
 N_noxref_7_c_1554_n N_noxref_7_c_1585_n )  PM_DFFRNX1_PCELL\%noxref_7
x_PM_DFFRNX1_PCELL\%noxref_8 ( N_noxref_8_c_1729_n N_noxref_8_c_1730_n \
 N_noxref_8_c_1757_n N_noxref_8_c_1833_n N_noxref_8_c_1731_n \
 N_noxref_8_c_1770_n N_noxref_8_c_1733_n N_noxref_8_c_1835_n \
 N_noxref_8_c_1734_n N_noxref_8_c_1778_n N_noxref_8_c_1782_n \
 N_noxref_8_c_1784_n N_noxref_8_c_1788_n N_noxref_8_c_1736_n \
 N_noxref_8_c_1979_n N_noxref_8_c_1792_n N_noxref_8_c_2050_p \
 N_noxref_8_c_1737_n N_noxref_8_c_1915_n N_noxref_8_c_1987_n \
 N_noxref_8_M0_noxref_g N_noxref_8_M7_noxref_g N_noxref_8_M15_noxref_g \
 N_noxref_8_M16_noxref_g N_noxref_8_M17_noxref_g N_noxref_8_M30_noxref_g \
 N_noxref_8_M31_noxref_g N_noxref_8_M46_noxref_g N_noxref_8_M47_noxref_g \
 N_noxref_8_c_1739_n N_noxref_8_c_1741_n N_noxref_8_c_1742_n \
 N_noxref_8_c_1743_n N_noxref_8_c_1744_n N_noxref_8_c_1745_n \
 N_noxref_8_c_1746_n N_noxref_8_c_1748_n N_noxref_8_c_1930_n \
 N_noxref_8_c_1809_n N_noxref_8_c_1844_n N_noxref_8_c_1847_n \
 N_noxref_8_c_1849_n N_noxref_8_c_1879_n N_noxref_8_c_1881_n \
 N_noxref_8_c_1882_n N_noxref_8_c_1852_n N_noxref_8_c_1853_n \
 N_noxref_8_c_2057_p N_noxref_8_c_2059_p N_noxref_8_c_2060_p \
 N_noxref_8_c_2083_p N_noxref_8_c_2091_p N_noxref_8_c_2078_p \
 N_noxref_8_c_2065_p N_noxref_8_c_2068_p N_noxref_8_c_1854_n \
 N_noxref_8_c_1888_n N_noxref_8_c_1856_n N_noxref_8_c_2052_p \
 N_noxref_8_c_2085_p N_noxref_8_c_2053_p N_noxref_8_M10_noxref_d \
 N_noxref_8_M32_noxref_d N_noxref_8_M34_noxref_d N_noxref_8_M36_noxref_d )  \
 PM_DFFRNX1_PCELL\%noxref_8
x_PM_DFFRNX1_PCELL\%noxref_9 ( N_noxref_9_c_2135_n N_noxref_9_c_2110_n \
 N_noxref_9_c_2114_n N_noxref_9_c_2117_n N_noxref_9_c_2128_n \
 N_noxref_9_M0_noxref_s )  PM_DFFRNX1_PCELL\%noxref_9
x_PM_DFFRNX1_PCELL\%noxref_10 ( N_noxref_10_c_2157_n N_noxref_10_c_2159_n \
 N_noxref_10_c_2162_n N_noxref_10_c_2165_n N_noxref_10_c_2176_n \
 N_noxref_10_M1_noxref_d N_noxref_10_M2_noxref_s )  PM_DFFRNX1_PCELL\%noxref_10
x_PM_DFFRNX1_PCELL\%noxref_11 ( N_noxref_11_c_2210_n N_noxref_11_M4_noxref_g \
 N_noxref_11_M24_noxref_g N_noxref_11_M25_noxref_g N_noxref_11_c_2239_n \
 N_noxref_11_c_2242_n N_noxref_11_c_2278_p N_noxref_11_c_2285_p \
 N_noxref_11_c_2244_n N_noxref_11_c_2245_n N_noxref_11_c_2246_n \
 N_noxref_11_c_2247_n N_noxref_11_c_2224_n N_noxref_11_c_2225_n )  \
 PM_DFFRNX1_PCELL\%noxref_11
x_PM_DFFRNX1_PCELL\%noxref_12 ( N_noxref_12_c_2306_n N_noxref_12_c_2290_n \
 N_noxref_12_c_2294_n N_noxref_12_c_2297_n N_noxref_12_c_2308_n \
 N_noxref_12_M3_noxref_s )  PM_DFFRNX1_PCELL\%noxref_12
x_PM_DFFRNX1_PCELL\%noxref_13 ( N_noxref_13_c_2340_n N_noxref_13_c_2342_n \
 N_noxref_13_c_2345_n N_noxref_13_c_2348_n N_noxref_13_c_2357_n \
 N_noxref_13_M4_noxref_d N_noxref_13_M5_noxref_s )  PM_DFFRNX1_PCELL\%noxref_13
x_PM_DFFRNX1_PCELL\%noxref_14 ( N_noxref_14_c_2413_n N_noxref_14_c_2394_n \
 N_noxref_14_c_2398_n N_noxref_14_c_2401_n N_noxref_14_c_2402_n \
 N_noxref_14_c_2405_n N_noxref_14_M6_noxref_s )  PM_DFFRNX1_PCELL\%noxref_14
x_PM_DFFRNX1_PCELL\%noxref_15 ( N_noxref_15_c_2462_n N_noxref_15_c_2446_n \
 N_noxref_15_c_2450_n N_noxref_15_c_2453_n N_noxref_15_c_2476_n \
 N_noxref_15_M8_noxref_s )  PM_DFFRNX1_PCELL\%noxref_15
x_PM_DFFRNX1_PCELL\%noxref_16 ( N_noxref_16_c_2496_n N_noxref_16_c_2498_n \
 N_noxref_16_c_2501_n N_noxref_16_c_2504_n N_noxref_16_c_2529_n \
 N_noxref_16_M9_noxref_d N_noxref_16_M10_noxref_s )  PM_DFFRNX1_PCELL\%noxref_16
x_PM_DFFRNX1_PCELL\%noxref_17 ( N_noxref_17_c_2566_n N_noxref_17_c_2550_n \
 N_noxref_17_c_2554_n N_noxref_17_c_2557_n N_noxref_17_c_2580_n \
 N_noxref_17_M11_noxref_s )  PM_DFFRNX1_PCELL\%noxref_17
x_PM_DFFRNX1_PCELL\%noxref_18 ( N_noxref_18_c_2602_n N_noxref_18_M13_noxref_g \
 N_noxref_18_M42_noxref_g N_noxref_18_M43_noxref_g N_noxref_18_c_2616_n \
 N_noxref_18_c_2617_n N_noxref_18_c_2618_n N_noxref_18_c_2642_p \
 N_noxref_18_c_2631_p N_noxref_18_c_2644_p N_noxref_18_c_2632_p \
 N_noxref_18_c_2619_n N_noxref_18_c_2622_n N_noxref_18_c_2623_n )  \
 PM_DFFRNX1_PCELL\%noxref_18
x_PM_DFFRNX1_PCELL\%noxref_19 ( N_noxref_19_c_2661_n N_noxref_19_c_2665_n \
 N_noxref_19_c_2667_n N_noxref_19_c_2671_n N_noxref_19_c_2659_n \
 N_noxref_19_c_2707_n N_noxref_19_c_2675_n N_noxref_19_c_2700_n \
 N_noxref_19_c_2720_n N_noxref_19_M13_noxref_d N_noxref_19_M38_noxref_d \
 N_noxref_19_M40_noxref_d N_noxref_19_M42_noxref_d )  \
 PM_DFFRNX1_PCELL\%noxref_19
x_PM_DFFRNX1_PCELL\%noxref_20 ( N_noxref_20_c_2741_n N_noxref_20_c_2743_n \
 N_noxref_20_c_2746_n N_noxref_20_c_2749_n N_noxref_20_c_2781_n \
 N_noxref_20_M12_noxref_d N_noxref_20_M13_noxref_s )  \
 PM_DFFRNX1_PCELL\%noxref_20
x_PM_DFFRNX1_PCELL\%noxref_21 ( N_noxref_21_c_2793_n N_noxref_21_M14_noxref_g \
 N_noxref_21_M44_noxref_g N_noxref_21_M45_noxref_g N_noxref_21_c_2794_n \
 N_noxref_21_c_2796_n N_noxref_21_c_2797_n N_noxref_21_c_2798_n \
 N_noxref_21_c_2799_n N_noxref_21_c_2800_n N_noxref_21_c_2801_n \
 N_noxref_21_c_2803_n N_noxref_21_c_2811_n )  PM_DFFRNX1_PCELL\%noxref_21
x_PM_DFFRNX1_PCELL\%noxref_22 ( N_noxref_22_c_2858_n N_noxref_22_c_2862_n \
 N_noxref_22_c_2864_n N_noxref_22_c_2853_n N_noxref_22_c_2912_p \
 N_noxref_22_c_2854_n N_noxref_22_c_2894_n N_noxref_22_M15_noxref_d \
 N_noxref_22_M44_noxref_d N_noxref_22_M46_noxref_d )  \
 PM_DFFRNX1_PCELL\%noxref_22
x_PM_DFFRNX1_PCELL\%noxref_23 ( N_noxref_23_c_2935_n N_noxref_23_c_2918_n \
 N_noxref_23_c_2922_n N_noxref_23_c_2925_n N_noxref_23_c_2926_n \
 N_noxref_23_c_2928_n N_noxref_23_M14_noxref_s )  PM_DFFRNX1_PCELL\%noxref_23
cc_1 ( N_noxref_1_c_1_p N_noxref_2_c_287_n ) capacitor c=0.00989031f //x=0.74 \
 //y=0 //x2=0.74 //y2=7.4
cc_2 ( N_noxref_1_c_2_p N_noxref_2_c_288_n ) capacitor c=0.00989031f //x=25.53 \
 //y=0 //x2=25.53 //y2=7.4
cc_3 ( N_noxref_1_c_3_p N_noxref_2_c_289_n ) capacitor c=0.00500587f //x=4.81 \
 //y=0 //x2=4.81 //y2=7.4
cc_4 ( N_noxref_1_c_4_p N_noxref_2_c_290_n ) capacitor c=0.00500587f //x=9.62 \
 //y=0 //x2=9.62 //y2=7.4
cc_5 ( N_noxref_1_c_5_p N_noxref_2_c_291_n ) capacitor c=0.00500587f //x=12.95 \
 //y=0 //x2=12.95 //y2=7.4
cc_6 ( N_noxref_1_c_6_p N_noxref_2_c_292_n ) capacitor c=0.00524516f //x=17.76 \
 //y=0 //x2=17.76 //y2=7.4
cc_7 ( N_noxref_1_c_7_p N_noxref_2_c_293_n ) capacitor c=0.0052832f //x=22.57 \
 //y=0 //x2=22.57 //y2=7.4
cc_8 ( N_noxref_1_c_8_p N_noxref_3_c_608_n ) capacitor c=0.0324991f //x=25.53 \
 //y=0 //x2=8.765 //y2=3.33
cc_9 ( N_noxref_1_c_9_p N_noxref_3_c_608_n ) capacitor c=0.00174514f //x=4.64 \
 //y=0 //x2=8.765 //y2=3.33
cc_10 ( N_noxref_1_c_10_p N_noxref_3_c_608_n ) capacitor c=0.00152503f //x=5.8 \
 //y=0 //x2=8.765 //y2=3.33
cc_11 ( N_noxref_1_c_3_p N_noxref_3_c_608_n ) capacitor c=0.00820844f //x=4.81 \
 //y=0 //x2=8.765 //y2=3.33
cc_12 ( N_noxref_1_c_8_p N_noxref_3_c_612_n ) capacitor c=0.00172266f \
 //x=25.53 //y=0 //x2=3.445 //y2=3.33
cc_13 ( N_noxref_1_c_4_p N_noxref_3_c_613_n ) capacitor c=0.00582294f //x=9.62 \
 //y=0 //x2=10.615 //y2=3.33
cc_14 ( N_noxref_1_c_3_p N_noxref_3_c_614_n ) capacitor c=9.53263e-19 //x=4.81 \
 //y=0 //x2=3.33 //y2=2.08
cc_15 ( N_noxref_1_c_4_p N_noxref_3_c_615_n ) capacitor c=0.0432238f //x=9.62 \
 //y=0 //x2=8.795 //y2=1.665
cc_16 ( N_noxref_1_c_4_p N_noxref_3_c_616_n ) capacitor c=0.0156446f //x=9.62 \
 //y=0 //x2=10.73 //y2=2.08
cc_17 ( N_noxref_1_c_17_p N_noxref_3_c_617_n ) capacitor c=0.00135046f \
 //x=10.715 //y=0 //x2=10.535 //y2=0.865
cc_18 ( N_noxref_1_M6_noxref_d N_noxref_3_c_617_n ) capacitor c=0.00220047f \
 //x=10.61 //y=0.865 //x2=10.535 //y2=0.865
cc_19 ( N_noxref_1_M6_noxref_d N_noxref_3_c_619_n ) capacitor c=0.00255985f \
 //x=10.61 //y=0.865 //x2=10.535 //y2=1.21
cc_20 ( N_noxref_1_c_4_p N_noxref_3_c_620_n ) capacitor c=0.00189421f //x=9.62 \
 //y=0 //x2=10.535 //y2=1.52
cc_21 ( N_noxref_1_c_4_p N_noxref_3_c_621_n ) capacitor c=0.00992619f //x=9.62 \
 //y=0 //x2=10.535 //y2=1.915
cc_22 ( N_noxref_1_M6_noxref_d N_noxref_3_c_622_n ) capacitor c=0.0131326f \
 //x=10.61 //y=0.865 //x2=10.91 //y2=0.71
cc_23 ( N_noxref_1_M6_noxref_d N_noxref_3_c_623_n ) capacitor c=0.00193127f \
 //x=10.61 //y=0.865 //x2=10.91 //y2=1.365
cc_24 ( N_noxref_1_c_24_p N_noxref_3_c_624_n ) capacitor c=0.00130622f \
 //x=12.78 //y=0 //x2=11.065 //y2=0.865
cc_25 ( N_noxref_1_M6_noxref_d N_noxref_3_c_624_n ) capacitor c=0.00257848f \
 //x=10.61 //y=0.865 //x2=11.065 //y2=0.865
cc_26 ( N_noxref_1_M6_noxref_d N_noxref_3_c_626_n ) capacitor c=0.00255985f \
 //x=10.61 //y=0.865 //x2=11.065 //y2=1.21
cc_27 ( N_noxref_1_c_4_p N_noxref_3_M5_noxref_d ) capacitor c=0.00591582f \
 //x=9.62 //y=0 //x2=8.205 //y2=0.915
cc_28 ( N_noxref_1_c_5_p N_noxref_4_c_854_n ) capacitor c=0.00582294f \
 //x=12.95 //y=0 //x2=13.945 //y2=3.33
cc_29 ( N_noxref_1_c_5_p N_noxref_4_c_855_n ) capacitor c=0.0436242f //x=12.95 \
 //y=0 //x2=12.125 //y2=1.655
cc_30 ( N_noxref_1_c_4_p N_noxref_4_c_856_n ) capacitor c=9.64732e-19 //x=9.62 \
 //y=0 //x2=12.21 //y2=3.33
cc_31 ( N_noxref_1_c_5_p N_noxref_4_c_857_n ) capacitor c=0.0156442f //x=12.95 \
 //y=0 //x2=14.06 //y2=2.08
cc_32 ( N_noxref_1_c_32_p N_noxref_4_c_858_n ) capacitor c=0.00132755f \
 //x=13.94 //y=0 //x2=13.76 //y2=0.875
cc_33 ( N_noxref_1_M8_noxref_d N_noxref_4_c_858_n ) capacitor c=0.00211996f \
 //x=13.835 //y=0.875 //x2=13.76 //y2=0.875
cc_34 ( N_noxref_1_M8_noxref_d N_noxref_4_c_860_n ) capacitor c=0.00255985f \
 //x=13.835 //y=0.875 //x2=13.76 //y2=1.22
cc_35 ( N_noxref_1_c_5_p N_noxref_4_c_861_n ) capacitor c=0.00195164f \
 //x=12.95 //y=0 //x2=13.76 //y2=1.53
cc_36 ( N_noxref_1_c_5_p N_noxref_4_c_862_n ) capacitor c=0.0110952f //x=12.95 \
 //y=0 //x2=13.76 //y2=1.915
cc_37 ( N_noxref_1_M8_noxref_d N_noxref_4_c_863_n ) capacitor c=0.0131341f \
 //x=13.835 //y=0.875 //x2=14.135 //y2=0.72
cc_38 ( N_noxref_1_M8_noxref_d N_noxref_4_c_864_n ) capacitor c=0.00193146f \
 //x=13.835 //y=0.875 //x2=14.135 //y2=1.375
cc_39 ( N_noxref_1_c_39_p N_noxref_4_c_865_n ) capacitor c=0.00129018f \
 //x=17.59 //y=0 //x2=14.29 //y2=0.875
cc_40 ( N_noxref_1_M8_noxref_d N_noxref_4_c_865_n ) capacitor c=0.00257848f \
 //x=13.835 //y=0.875 //x2=14.29 //y2=0.875
cc_41 ( N_noxref_1_M8_noxref_d N_noxref_4_c_867_n ) capacitor c=0.00255985f \
 //x=13.835 //y=0.875 //x2=14.29 //y2=1.22
cc_42 ( N_noxref_1_c_4_p N_noxref_4_M7_noxref_d ) capacitor c=8.58106e-19 \
 //x=9.62 //y=0 //x2=11.58 //y2=0.905
cc_43 ( N_noxref_1_c_5_p N_noxref_4_M7_noxref_d ) capacitor c=0.00616547f \
 //x=12.95 //y=0 //x2=11.58 //y2=0.905
cc_44 ( N_noxref_1_M6_noxref_d N_noxref_4_M7_noxref_d ) capacitor \
 c=0.00143464f //x=10.61 //y=0.865 //x2=11.58 //y2=0.905
cc_45 ( N_noxref_1_c_1_p N_noxref_5_c_1001_n ) capacitor c=7.64246e-19 \
 //x=0.74 //y=0 //x2=2.22 //y2=2.08
cc_46 ( N_noxref_1_c_5_p N_noxref_5_c_1002_n ) capacitor c=6.04789e-19 \
 //x=12.95 //y=0 //x2=15.17 //y2=2.08
cc_47 ( N_noxref_1_c_6_p N_noxref_6_c_1216_n ) capacitor c=0.00390249f \
 //x=17.76 //y=0 //x2=18.755 //y2=3.7
cc_48 ( N_noxref_1_c_3_p N_noxref_6_c_1217_n ) capacitor c=0.0459494f //x=4.81 \
 //y=0 //x2=3.985 //y2=1.665
cc_49 ( N_noxref_1_c_3_p N_noxref_6_c_1218_n ) capacitor c=0.0178133f //x=4.81 \
 //y=0 //x2=5.92 //y2=2.08
cc_50 ( N_noxref_1_c_6_p N_noxref_6_c_1219_n ) capacitor c=0.0155796f \
 //x=17.76 //y=0 //x2=18.87 //y2=2.08
cc_51 ( N_noxref_1_c_10_p N_noxref_6_c_1220_n ) capacitor c=0.00132755f \
 //x=5.8 //y=0 //x2=5.62 //y2=0.875
cc_52 ( N_noxref_1_M3_noxref_d N_noxref_6_c_1220_n ) capacitor c=0.00211996f \
 //x=5.695 //y=0.875 //x2=5.62 //y2=0.875
cc_53 ( N_noxref_1_M3_noxref_d N_noxref_6_c_1222_n ) capacitor c=0.00255985f \
 //x=5.695 //y=0.875 //x2=5.62 //y2=1.22
cc_54 ( N_noxref_1_c_3_p N_noxref_6_c_1223_n ) capacitor c=0.00204716f \
 //x=4.81 //y=0 //x2=5.62 //y2=1.53
cc_55 ( N_noxref_1_c_3_p N_noxref_6_c_1224_n ) capacitor c=0.0118433f //x=4.81 \
 //y=0 //x2=5.62 //y2=1.915
cc_56 ( N_noxref_1_M3_noxref_d N_noxref_6_c_1225_n ) capacitor c=0.0131341f \
 //x=5.695 //y=0.875 //x2=5.995 //y2=0.72
cc_57 ( N_noxref_1_M3_noxref_d N_noxref_6_c_1226_n ) capacitor c=0.00193146f \
 //x=5.695 //y=0.875 //x2=5.995 //y2=1.375
cc_58 ( N_noxref_1_c_58_p N_noxref_6_c_1227_n ) capacitor c=0.00129018f \
 //x=9.45 //y=0 //x2=6.15 //y2=0.875
cc_59 ( N_noxref_1_M3_noxref_d N_noxref_6_c_1227_n ) capacitor c=0.00257848f \
 //x=5.695 //y=0.875 //x2=6.15 //y2=0.875
cc_60 ( N_noxref_1_M3_noxref_d N_noxref_6_c_1229_n ) capacitor c=0.00255985f \
 //x=5.695 //y=0.875 //x2=6.15 //y2=1.22
cc_61 ( N_noxref_1_c_61_p N_noxref_6_c_1230_n ) capacitor c=0.00132755f \
 //x=18.75 //y=0 //x2=18.57 //y2=0.875
cc_62 ( N_noxref_1_M11_noxref_d N_noxref_6_c_1230_n ) capacitor c=0.00211996f \
 //x=18.645 //y=0.875 //x2=18.57 //y2=0.875
cc_63 ( N_noxref_1_M11_noxref_d N_noxref_6_c_1232_n ) capacitor c=0.00255985f \
 //x=18.645 //y=0.875 //x2=18.57 //y2=1.22
cc_64 ( N_noxref_1_c_6_p N_noxref_6_c_1233_n ) capacitor c=0.00204716f \
 //x=17.76 //y=0 //x2=18.57 //y2=1.53
cc_65 ( N_noxref_1_c_6_p N_noxref_6_c_1234_n ) capacitor c=0.0110952f \
 //x=17.76 //y=0 //x2=18.57 //y2=1.915
cc_66 ( N_noxref_1_M11_noxref_d N_noxref_6_c_1235_n ) capacitor c=0.0131341f \
 //x=18.645 //y=0.875 //x2=18.945 //y2=0.72
cc_67 ( N_noxref_1_M11_noxref_d N_noxref_6_c_1236_n ) capacitor c=0.00193146f \
 //x=18.645 //y=0.875 //x2=18.945 //y2=1.375
cc_68 ( N_noxref_1_c_68_p N_noxref_6_c_1237_n ) capacitor c=0.00129018f \
 //x=22.4 //y=0 //x2=19.1 //y2=0.875
cc_69 ( N_noxref_1_M11_noxref_d N_noxref_6_c_1237_n ) capacitor c=0.00257848f \
 //x=18.645 //y=0.875 //x2=19.1 //y2=0.875
cc_70 ( N_noxref_1_M11_noxref_d N_noxref_6_c_1239_n ) capacitor c=0.00255985f \
 //x=18.645 //y=0.875 //x2=19.1 //y2=1.22
cc_71 ( N_noxref_1_c_3_p N_noxref_6_M2_noxref_d ) capacitor c=0.00591582f \
 //x=4.81 //y=0 //x2=3.395 //y2=0.915
cc_72 ( N_noxref_1_c_8_p N_noxref_7_c_1461_n ) capacitor c=0.0754427f \
 //x=25.53 //y=0 //x2=16.165 //y2=2.22
cc_73 ( N_noxref_1_c_58_p N_noxref_7_c_1461_n ) capacitor c=0.00318526f \
 //x=9.45 //y=0 //x2=16.165 //y2=2.22
cc_74 ( N_noxref_1_c_17_p N_noxref_7_c_1461_n ) capacitor c=0.00347653f \
 //x=10.715 //y=0 //x2=16.165 //y2=2.22
cc_75 ( N_noxref_1_c_24_p N_noxref_7_c_1461_n ) capacitor c=0.00411932f \
 //x=12.78 //y=0 //x2=16.165 //y2=2.22
cc_76 ( N_noxref_1_c_32_p N_noxref_7_c_1461_n ) capacitor c=0.00274252f \
 //x=13.94 //y=0 //x2=16.165 //y2=2.22
cc_77 ( N_noxref_1_c_39_p N_noxref_7_c_1461_n ) capacitor c=0.00111309f \
 //x=17.59 //y=0 //x2=16.165 //y2=2.22
cc_78 ( N_noxref_1_c_4_p N_noxref_7_c_1461_n ) capacitor c=0.0418918f //x=9.62 \
 //y=0 //x2=16.165 //y2=2.22
cc_79 ( N_noxref_1_c_5_p N_noxref_7_c_1461_n ) capacitor c=0.0418918f \
 //x=12.95 //y=0 //x2=16.165 //y2=2.22
cc_80 ( N_noxref_1_c_8_p N_noxref_7_c_1469_n ) capacitor c=0.00221055f \
 //x=25.53 //y=0 //x2=8.255 //y2=2.22
cc_81 ( N_noxref_1_c_58_p N_noxref_7_c_1469_n ) capacitor c=4.19033e-19 \
 //x=9.45 //y=0 //x2=8.255 //y2=2.22
cc_82 ( N_noxref_1_c_8_p N_noxref_7_c_1471_n ) capacitor c=0.0355717f \
 //x=25.53 //y=0 //x2=19.865 //y2=2.22
cc_83 ( N_noxref_1_c_39_p N_noxref_7_c_1471_n ) capacitor c=0.00318526f \
 //x=17.59 //y=0 //x2=19.865 //y2=2.22
cc_84 ( N_noxref_1_c_61_p N_noxref_7_c_1471_n ) capacitor c=0.00274252f \
 //x=18.75 //y=0 //x2=19.865 //y2=2.22
cc_85 ( N_noxref_1_c_6_p N_noxref_7_c_1471_n ) capacitor c=0.0430854f \
 //x=17.76 //y=0 //x2=19.865 //y2=2.22
cc_86 ( N_noxref_1_c_8_p N_noxref_7_c_1475_n ) capacitor c=0.00195247f \
 //x=25.53 //y=0 //x2=16.395 //y2=2.22
cc_87 ( N_noxref_1_c_4_p N_noxref_7_c_1476_n ) capacitor c=8.37259e-19 \
 //x=9.62 //y=0 //x2=8.14 //y2=2.08
cc_88 ( N_noxref_1_c_6_p N_noxref_7_c_1477_n ) capacitor c=8.37259e-19 \
 //x=17.76 //y=0 //x2=16.28 //y2=2.08
cc_89 ( N_noxref_1_c_6_p N_noxref_7_c_1478_n ) capacitor c=5.94159e-19 \
 //x=17.76 //y=0 //x2=19.98 //y2=2.08
cc_90 ( N_noxref_1_c_8_p N_noxref_8_c_1729_n ) capacitor c=0.0122686f \
 //x=25.53 //y=0 //x2=11.355 //y2=4.07
cc_91 ( N_noxref_1_c_8_p N_noxref_8_c_1730_n ) capacitor c=0.0015877f \
 //x=25.53 //y=0 //x2=1.225 //y2=4.07
cc_92 ( N_noxref_1_c_8_p N_noxref_8_c_1731_n ) capacitor c=0.0255675f \
 //x=25.53 //y=0 //x2=24.305 //y2=4.07
cc_93 ( N_noxref_1_c_7_p N_noxref_8_c_1731_n ) capacitor c=0.00363802f \
 //x=22.57 //y=0 //x2=24.305 //y2=4.07
cc_94 ( N_noxref_1_c_1_p N_noxref_8_c_1733_n ) capacitor c=0.0180363f //x=0.74 \
 //y=0 //x2=1.11 //y2=2.08
cc_95 ( N_noxref_1_c_4_p N_noxref_8_c_1734_n ) capacitor c=7.4738e-19 //x=9.62 \
 //y=0 //x2=11.47 //y2=2.08
cc_96 ( N_noxref_1_c_5_p N_noxref_8_c_1734_n ) capacitor c=7.76678e-19 \
 //x=12.95 //y=0 //x2=11.47 //y2=2.08
cc_97 ( N_noxref_1_c_6_p N_noxref_8_c_1736_n ) capacitor c=0.0430857f \
 //x=17.76 //y=0 //x2=16.935 //y2=1.665
cc_98 ( N_noxref_1_c_2_p N_noxref_8_c_1737_n ) capacitor c=9.53263e-19 \
 //x=25.53 //y=0 //x2=24.42 //y2=2.08
cc_99 ( N_noxref_1_c_7_p N_noxref_8_c_1737_n ) capacitor c=9.2064e-19 \
 //x=22.57 //y=0 //x2=24.42 //y2=2.08
cc_100 ( N_noxref_1_c_100_p N_noxref_8_c_1739_n ) capacitor c=0.00132755f \
 //x=0.99 //y=0 //x2=0.81 //y2=0.875
cc_101 ( N_noxref_1_M0_noxref_d N_noxref_8_c_1739_n ) capacitor c=0.00211996f \
 //x=0.885 //y=0.875 //x2=0.81 //y2=0.875
cc_102 ( N_noxref_1_M0_noxref_d N_noxref_8_c_1741_n ) capacitor c=0.00255985f \
 //x=0.885 //y=0.875 //x2=0.81 //y2=1.22
cc_103 ( N_noxref_1_c_1_p N_noxref_8_c_1742_n ) capacitor c=0.00295461f \
 //x=0.74 //y=0 //x2=0.81 //y2=1.53
cc_104 ( N_noxref_1_c_1_p N_noxref_8_c_1743_n ) capacitor c=0.0134214f \
 //x=0.74 //y=0 //x2=0.81 //y2=1.915
cc_105 ( N_noxref_1_M0_noxref_d N_noxref_8_c_1744_n ) capacitor c=0.0131341f \
 //x=0.885 //y=0.875 //x2=1.185 //y2=0.72
cc_106 ( N_noxref_1_M0_noxref_d N_noxref_8_c_1745_n ) capacitor c=0.00193146f \
 //x=0.885 //y=0.875 //x2=1.185 //y2=1.375
cc_107 ( N_noxref_1_c_9_p N_noxref_8_c_1746_n ) capacitor c=0.00129018f \
 //x=4.64 //y=0 //x2=1.34 //y2=0.875
cc_108 ( N_noxref_1_M0_noxref_d N_noxref_8_c_1746_n ) capacitor c=0.00257848f \
 //x=0.885 //y=0.875 //x2=1.34 //y2=0.875
cc_109 ( N_noxref_1_M0_noxref_d N_noxref_8_c_1748_n ) capacitor c=0.00255985f \
 //x=0.885 //y=0.875 //x2=1.34 //y2=1.22
cc_110 ( N_noxref_1_c_6_p N_noxref_8_M10_noxref_d ) capacitor c=0.00591582f \
 //x=17.76 //y=0 //x2=16.345 //y2=0.915
cc_111 ( N_noxref_1_c_8_p N_noxref_9_c_2110_n ) capacitor c=0.00618812f \
 //x=25.53 //y=0 //x2=1.475 //y2=1.59
cc_112 ( N_noxref_1_c_100_p N_noxref_9_c_2110_n ) capacitor c=0.00110021f \
 //x=0.99 //y=0 //x2=1.475 //y2=1.59
cc_113 ( N_noxref_1_c_9_p N_noxref_9_c_2110_n ) capacitor c=0.00179185f \
 //x=4.64 //y=0 //x2=1.475 //y2=1.59
cc_114 ( N_noxref_1_M0_noxref_d N_noxref_9_c_2110_n ) capacitor c=0.00894788f \
 //x=0.885 //y=0.875 //x2=1.475 //y2=1.59
cc_115 ( N_noxref_1_c_8_p N_noxref_9_c_2114_n ) capacitor c=0.00575184f \
 //x=25.53 //y=0 //x2=1.56 //y2=0.625
cc_116 ( N_noxref_1_c_9_p N_noxref_9_c_2114_n ) capacitor c=0.0140218f \
 //x=4.64 //y=0 //x2=1.56 //y2=0.625
cc_117 ( N_noxref_1_M0_noxref_d N_noxref_9_c_2114_n ) capacitor c=0.033954f \
 //x=0.885 //y=0.875 //x2=1.56 //y2=0.625
cc_118 ( N_noxref_1_c_8_p N_noxref_9_c_2117_n ) capacitor c=0.0139021f \
 //x=25.53 //y=0 //x2=2.445 //y2=0.54
cc_119 ( N_noxref_1_c_9_p N_noxref_9_c_2117_n ) capacitor c=0.0356078f \
 //x=4.64 //y=0 //x2=2.445 //y2=0.54
cc_120 ( N_noxref_1_c_2_p N_noxref_9_c_2117_n ) capacitor c=0.00177266f \
 //x=25.53 //y=0 //x2=2.445 //y2=0.54
cc_121 ( N_noxref_1_c_8_p N_noxref_9_M0_noxref_s ) capacitor c=0.0125336f \
 //x=25.53 //y=0 //x2=0.455 //y2=0.375
cc_122 ( N_noxref_1_c_100_p N_noxref_9_M0_noxref_s ) capacitor c=0.0140218f \
 //x=0.99 //y=0 //x2=0.455 //y2=0.375
cc_123 ( N_noxref_1_c_1_p N_noxref_9_M0_noxref_s ) capacitor c=0.0712607f \
 //x=0.74 //y=0 //x2=0.455 //y2=0.375
cc_124 ( N_noxref_1_c_9_p N_noxref_9_M0_noxref_s ) capacitor c=0.0131422f \
 //x=4.64 //y=0 //x2=0.455 //y2=0.375
cc_125 ( N_noxref_1_c_3_p N_noxref_9_M0_noxref_s ) capacitor c=3.31601e-19 \
 //x=4.81 //y=0 //x2=0.455 //y2=0.375
cc_126 ( N_noxref_1_M0_noxref_d N_noxref_9_M0_noxref_s ) capacitor c=0.033718f \
 //x=0.885 //y=0.875 //x2=0.455 //y2=0.375
cc_127 ( N_noxref_1_c_8_p N_noxref_10_c_2157_n ) capacitor c=0.00402784f \
 //x=25.53 //y=0 //x2=3.015 //y2=0.995
cc_128 ( N_noxref_1_c_9_p N_noxref_10_c_2157_n ) capacitor c=0.00829979f \
 //x=4.64 //y=0 //x2=3.015 //y2=0.995
cc_129 ( N_noxref_1_c_8_p N_noxref_10_c_2159_n ) capacitor c=0.00575184f \
 //x=25.53 //y=0 //x2=3.1 //y2=0.625
cc_130 ( N_noxref_1_c_9_p N_noxref_10_c_2159_n ) capacitor c=0.0140218f \
 //x=4.64 //y=0 //x2=3.1 //y2=0.625
cc_131 ( N_noxref_1_M0_noxref_d N_noxref_10_c_2159_n ) capacitor c=6.21394e-19 \
 //x=0.885 //y=0.875 //x2=3.1 //y2=0.625
cc_132 ( N_noxref_1_c_8_p N_noxref_10_c_2162_n ) capacitor c=0.0118365f \
 //x=25.53 //y=0 //x2=3.985 //y2=0.54
cc_133 ( N_noxref_1_c_9_p N_noxref_10_c_2162_n ) capacitor c=0.0365413f \
 //x=4.64 //y=0 //x2=3.985 //y2=0.54
cc_134 ( N_noxref_1_c_2_p N_noxref_10_c_2162_n ) capacitor c=0.00189358f \
 //x=25.53 //y=0 //x2=3.985 //y2=0.54
cc_135 ( N_noxref_1_c_8_p N_noxref_10_c_2165_n ) capacitor c=0.00287549f \
 //x=25.53 //y=0 //x2=4.07 //y2=0.625
cc_136 ( N_noxref_1_c_9_p N_noxref_10_c_2165_n ) capacitor c=0.0142658f \
 //x=4.64 //y=0 //x2=4.07 //y2=0.625
cc_137 ( N_noxref_1_c_3_p N_noxref_10_c_2165_n ) capacitor c=0.0404137f \
 //x=4.81 //y=0 //x2=4.07 //y2=0.625
cc_138 ( N_noxref_1_M0_noxref_d N_noxref_10_M1_noxref_d ) capacitor \
 c=0.00162435f //x=0.885 //y=0.875 //x2=1.86 //y2=0.91
cc_139 ( N_noxref_1_c_1_p N_noxref_10_M2_noxref_s ) capacitor c=8.16352e-19 \
 //x=0.74 //y=0 //x2=2.965 //y2=0.375
cc_140 ( N_noxref_1_c_3_p N_noxref_10_M2_noxref_s ) capacitor c=0.00183204f \
 //x=4.81 //y=0 //x2=2.965 //y2=0.375
cc_141 ( N_noxref_1_c_3_p N_noxref_11_c_2210_n ) capacitor c=8.54129e-19 \
 //x=4.81 //y=0 //x2=7.03 //y2=2.08
cc_142 ( N_noxref_1_c_8_p N_noxref_12_c_2290_n ) capacitor c=0.00551063f \
 //x=25.53 //y=0 //x2=6.285 //y2=1.59
cc_143 ( N_noxref_1_c_10_p N_noxref_12_c_2290_n ) capacitor c=0.00111576f \
 //x=5.8 //y=0 //x2=6.285 //y2=1.59
cc_144 ( N_noxref_1_c_58_p N_noxref_12_c_2290_n ) capacitor c=0.0018074f \
 //x=9.45 //y=0 //x2=6.285 //y2=1.59
cc_145 ( N_noxref_1_M3_noxref_d N_noxref_12_c_2290_n ) capacitor c=0.00887549f \
 //x=5.695 //y=0.875 //x2=6.285 //y2=1.59
cc_146 ( N_noxref_1_c_8_p N_noxref_12_c_2294_n ) capacitor c=0.00287639f \
 //x=25.53 //y=0 //x2=6.37 //y2=0.625
cc_147 ( N_noxref_1_c_58_p N_noxref_12_c_2294_n ) capacitor c=0.014327f \
 //x=9.45 //y=0 //x2=6.37 //y2=0.625
cc_148 ( N_noxref_1_M3_noxref_d N_noxref_12_c_2294_n ) capacitor c=0.033954f \
 //x=5.695 //y=0.875 //x2=6.37 //y2=0.625
cc_149 ( N_noxref_1_c_8_p N_noxref_12_c_2297_n ) capacitor c=0.0117685f \
 //x=25.53 //y=0 //x2=7.255 //y2=0.54
cc_150 ( N_noxref_1_c_58_p N_noxref_12_c_2297_n ) capacitor c=0.0362073f \
 //x=9.45 //y=0 //x2=7.255 //y2=0.54
cc_151 ( N_noxref_1_c_2_p N_noxref_12_c_2297_n ) capacitor c=0.00177266f \
 //x=25.53 //y=0 //x2=7.255 //y2=0.54
cc_152 ( N_noxref_1_c_8_p N_noxref_12_M3_noxref_s ) capacitor c=0.00575103f \
 //x=25.53 //y=0 //x2=5.265 //y2=0.375
cc_153 ( N_noxref_1_c_10_p N_noxref_12_M3_noxref_s ) capacitor c=0.014327f \
 //x=5.8 //y=0 //x2=5.265 //y2=0.375
cc_154 ( N_noxref_1_c_58_p N_noxref_12_M3_noxref_s ) capacitor c=0.0133864f \
 //x=9.45 //y=0 //x2=5.265 //y2=0.375
cc_155 ( N_noxref_1_c_3_p N_noxref_12_M3_noxref_s ) capacitor c=0.0696963f \
 //x=4.81 //y=0 //x2=5.265 //y2=0.375
cc_156 ( N_noxref_1_c_4_p N_noxref_12_M3_noxref_s ) capacitor c=3.31601e-19 \
 //x=9.62 //y=0 //x2=5.265 //y2=0.375
cc_157 ( N_noxref_1_M3_noxref_d N_noxref_12_M3_noxref_s ) capacitor \
 c=0.033718f //x=5.695 //y=0.875 //x2=5.265 //y2=0.375
cc_158 ( N_noxref_1_c_8_p N_noxref_13_c_2340_n ) capacitor c=0.00385233f \
 //x=25.53 //y=0 //x2=7.825 //y2=0.995
cc_159 ( N_noxref_1_c_58_p N_noxref_13_c_2340_n ) capacitor c=0.0094913f \
 //x=9.45 //y=0 //x2=7.825 //y2=0.995
cc_160 ( N_noxref_1_c_8_p N_noxref_13_c_2342_n ) capacitor c=0.00287639f \
 //x=25.53 //y=0 //x2=7.91 //y2=0.625