// File: dffrnx1_pcell.spi.pex
// Created: Tue Oct 15 15:55:51 2024
// Program "Calibre xRC"
// Version "v2023.2_27.15"
// Nominal Temperature: 30C
// Circuit Temperature: 30C
// 
simulator lang=spectre
subckt PM_DFFRNX1_PCELL\%noxref_1 ( 45 49 52 57 67 75 85 93 101 107 117 123 \
 133 144 148 150 152 155 158 161 162 163 164 165 166 )
c286 ( 166 0 ) capacitor c=0.0208202f //x=23.56 //y=0.865
c287 ( 165 0 ) capacitor c=0.0225954f //x=18.645 //y=0.875
c288 ( 164 0 ) capacitor c=0.0226075f //x=13.835 //y=0.875
c289 ( 163 0 ) capacitor c=0.0207407f //x=10.61 //y=0.865
c290 ( 162 0 ) capacitor c=0.0226571f //x=5.695 //y=0.875
c291 ( 161 0 ) capacitor c=0.022675f //x=0.885 //y=0.875
c292 ( 160 0 ) capacitor c=0.00440095f //x=23.68 //y=0
c293 ( 158 0 ) capacitor c=0.110763f //x=22.57 //y=0
c294 ( 157 0 ) capacitor c=0.00440144f //x=18.87 //y=0
c295 ( 155 0 ) capacitor c=0.107954f //x=17.76 //y=0
c296 ( 154 0 ) capacitor c=0.00440144f //x=14.06 //y=0
c297 ( 152 0 ) capacitor c=0.10465f //x=12.95 //y=0
c298 ( 151 0 ) capacitor c=0.00440095f //x=10.8 //y=0
c299 ( 150 0 ) capacitor c=0.108705f //x=9.62 //y=0
c300 ( 149 0 ) capacitor c=0.00440144f //x=5.885 //y=0
c301 ( 148 0 ) capacitor c=0.10869f //x=4.81 //y=0
c302 ( 147 0 ) capacitor c=0.00440144f //x=1.075 //y=0
c303 ( 144 0 ) capacitor c=0.259877f //x=25.53 //y=0
c304 ( 133 0 ) capacitor c=0.0426751f //x=23.665 //y=0
c305 ( 123 0 ) capacitor c=0.135107f //x=22.4 //y=0
c306 ( 117 0 ) capacitor c=0.0339325f //x=18.75 //y=0
c307 ( 107 0 ) capacitor c=0.133561f //x=17.59 //y=0
c308 ( 101 0 ) capacitor c=0.0339325f //x=13.94 //y=0
c309 ( 93 0 ) capacitor c=0.0718026f //x=12.78 //y=0
c310 ( 85 0 ) capacitor c=0.0388888f //x=10.715 //y=0
c311 ( 75 0 ) capacitor c=0.133699f //x=9.45 //y=0
c312 ( 67 0 ) capacitor c=0.0339738f //x=5.8 //y=0
c313 ( 57 0 ) capacitor c=0.131745f //x=4.64 //y=0
c314 ( 52 0 ) capacitor c=0.178285f //x=0.74 //y=0
c315 ( 49 0 ) capacitor c=0.0367385f //x=0.99 //y=0
c316 ( 45 0 ) capacitor c=0.818657f //x=25.53 //y=0
r317 (  142 144 ) resistor r=26.5322 //w=0.357 //l=0.74 //layer=li \
 //thickness=0.1 //x=24.79 //y=0 //x2=25.53 //y2=0
r318 (  140 160 ) resistor r=2.94794 //w=0.34 //l=0.085 //layer=li \
 //thickness=0.1 //x=23.835 //y=0 //x2=23.75 //y2=0
r319 (  140 142 ) resistor r=34.2409 //w=0.357 //l=0.955 //layer=li \
 //thickness=0.1 //x=23.835 //y=0 //x2=24.79 //y2=0
r320 (  135 160 ) resistor r=4.11603 //w=0.68 //l=0.17 //layer=li \
 //thickness=0.1 //x=23.75 //y=0.17 //x2=23.75 //y2=0
r321 (  135 166 ) resistor r=53.7326 //w=0.187 //l=0.785 //layer=li \
 //thickness=0.1 //x=23.75 //y=0.17 //x2=23.75 //y2=0.955
r322 (  134 158 ) resistor r=5.4201 //w=0.34 //l=0.17 //layer=li \
 //thickness=0.1 //x=22.74 //y=0 //x2=22.57 //y2=0
r323 (  133 160 ) resistor r=2.94794 //w=0.34 //l=0.085 //layer=li \
 //thickness=0.1 //x=23.665 //y=0 //x2=23.75 //y2=0
r324 (  133 134 ) resistor r=33.1653 //w=0.357 //l=0.925 //layer=li \
 //thickness=0.1 //x=23.665 //y=0 //x2=22.74 //y2=0
r325 (  128 130 ) resistor r=39.7983 //w=0.357 //l=1.11 //layer=li \
 //thickness=0.1 //x=21.09 //y=0 //x2=22.2 //y2=0
r326 (  126 128 ) resistor r=39.7983 //w=0.357 //l=1.11 //layer=li \
 //thickness=0.1 //x=19.98 //y=0 //x2=21.09 //y2=0
r327 (  124 157 ) resistor r=2.94794 //w=0.34 //l=0.085 //layer=li \
 //thickness=0.1 //x=18.92 //y=0 //x2=18.835 //y2=0
r328 (  124 126 ) resistor r=38.0056 //w=0.357 //l=1.06 //layer=li \
 //thickness=0.1 //x=18.92 //y=0 //x2=19.98 //y2=0
r329 (  123 158 ) resistor r=5.4201 //w=0.34 //l=0.17 //layer=li \
 //thickness=0.1 //x=22.4 //y=0 //x2=22.57 //y2=0
r330 (  123 130 ) resistor r=7.17087 //w=0.357 //l=0.2 //layer=li \
 //thickness=0.1 //x=22.4 //y=0 //x2=22.2 //y2=0
r331 (  119 157 ) resistor r=4.11603 //w=0.68 //l=0.17 //layer=li \
 //thickness=0.1 //x=18.835 //y=0.17 //x2=18.835 //y2=0
r332 (  119 165 ) resistor r=54.4171 //w=0.187 //l=0.795 //layer=li \
 //thickness=0.1 //x=18.835 //y=0.17 //x2=18.835 //y2=0.965
r333 (  118 155 ) resistor r=5.4201 //w=0.34 //l=0.17 //layer=li \
 //thickness=0.1 //x=17.93 //y=0 //x2=17.76 //y2=0
r334 (  117 157 ) resistor r=2.94794 //w=0.34 //l=0.085 //layer=li \
 //thickness=0.1 //x=18.75 //y=0 //x2=18.835 //y2=0
r335 (  117 118 ) resistor r=29.4006 //w=0.357 //l=0.82 //layer=li \
 //thickness=0.1 //x=18.75 //y=0 //x2=17.93 //y2=0
r336 (  112 114 ) resistor r=39.7983 //w=0.357 //l=1.11 //layer=li \
 //thickness=0.1 //x=16.28 //y=0 //x2=17.39 //y2=0
r337 (  110 112 ) resistor r=39.7983 //w=0.357 //l=1.11 //layer=li \
 //thickness=0.1 //x=15.17 //y=0 //x2=16.28 //y2=0
r338 (  108 154 ) resistor r=2.94794 //w=0.34 //l=0.085 //layer=li \
 //thickness=0.1 //x=14.11 //y=0 //x2=14.025 //y2=0
r339 (  108 110 ) resistor r=38.0056 //w=0.357 //l=1.06 //layer=li \
 //thickness=0.1 //x=14.11 //y=0 //x2=15.17 //y2=0
r340 (  107 155 ) resistor r=5.4201 //w=0.34 //l=0.17 //layer=li \
 //thickness=0.1 //x=17.59 //y=0 //x2=17.76 //y2=0
r341 (  107 114 ) resistor r=7.17087 //w=0.357 //l=0.2 //layer=li \
 //thickness=0.1 //x=17.59 //y=0 //x2=17.39 //y2=0
r342 (  103 154 ) resistor r=4.11603 //w=0.68 //l=0.17 //layer=li \
 //thickness=0.1 //x=14.025 //y=0.17 //x2=14.025 //y2=0
r343 (  103 164 ) resistor r=54.4171 //w=0.187 //l=0.795 //layer=li \
 //thickness=0.1 //x=14.025 //y=0.17 //x2=14.025 //y2=0.965
r344 (  102 152 ) resistor r=5.4201 //w=0.34 //l=0.17 //layer=li \
 //thickness=0.1 //x=13.12 //y=0 //x2=12.95 //y2=0
r345 (  101 154 ) resistor r=2.94794 //w=0.34 //l=0.085 //layer=li \
 //thickness=0.1 //x=13.94 //y=0 //x2=14.025 //y2=0
r346 (  101 102 ) resistor r=29.4006 //w=0.357 //l=0.82 //layer=li \
 //thickness=0.1 //x=13.94 //y=0 //x2=13.12 //y2=0
r347 (  96 98 ) resistor r=39.7983 //w=0.357 //l=1.11 //layer=li \
 //thickness=0.1 //x=11.47 //y=0 //x2=12.58 //y2=0
r348 (  94 151 ) resistor r=2.94794 //w=0.34 //l=0.085 //layer=li \
 //thickness=0.1 //x=10.885 //y=0 //x2=10.8 //y2=0
r349 (  94 96 ) resistor r=20.9748 //w=0.357 //l=0.585 //layer=li \
 //thickness=0.1 //x=10.885 //y=0 //x2=11.47 //y2=0
r350 (  93 152 ) resistor r=5.4201 //w=0.34 //l=0.17 //layer=li \
 //thickness=0.1 //x=12.78 //y=0 //x2=12.95 //y2=0
r351 (  93 98 ) resistor r=7.17087 //w=0.357 //l=0.2 //layer=li \
 //thickness=0.1 //x=12.78 //y=0 //x2=12.58 //y2=0
r352 (  89 151 ) resistor r=4.11603 //w=0.68 //l=0.17 //layer=li \
 //thickness=0.1 //x=10.8 //y=0.17 //x2=10.8 //y2=0
r353 (  89 163 ) resistor r=53.7326 //w=0.187 //l=0.785 //layer=li \
 //thickness=0.1 //x=10.8 //y=0.17 //x2=10.8 //y2=0.955
r354 (  86 150 ) resistor r=5.4201 //w=0.34 //l=0.17 //layer=li \
 //thickness=0.1 //x=9.79 //y=0 //x2=9.62 //y2=0
r355 (  86 88 ) resistor r=20.437 //w=0.357 //l=0.57 //layer=li \
 //thickness=0.1 //x=9.79 //y=0 //x2=10.36 //y2=0
r356 (  85 151 ) resistor r=2.94794 //w=0.34 //l=0.085 //layer=li \
 //thickness=0.1 //x=10.715 //y=0 //x2=10.8 //y2=0
r357 (  85 88 ) resistor r=12.7283 //w=0.357 //l=0.355 //layer=li \
 //thickness=0.1 //x=10.715 //y=0 //x2=10.36 //y2=0
r358 (  80 82 ) resistor r=39.7983 //w=0.357 //l=1.11 //layer=li \
 //thickness=0.1 //x=7.77 //y=0 //x2=8.88 //y2=0
r359 (  78 80 ) resistor r=39.7983 //w=0.357 //l=1.11 //layer=li \
 //thickness=0.1 //x=6.66 //y=0 //x2=7.77 //y2=0
r360 (  76 149 ) resistor r=2.94794 //w=0.34 //l=0.085 //layer=li \
 //thickness=0.1 //x=5.97 //y=0 //x2=5.885 //y2=0
r361 (  76 78 ) resistor r=24.7395 //w=0.357 //l=0.69 //layer=li \
 //thickness=0.1 //x=5.97 //y=0 //x2=6.66 //y2=0
r362 (  75 150 ) resistor r=5.4201 //w=0.34 //l=0.17 //layer=li \
 //thickness=0.1 //x=9.45 //y=0 //x2=9.62 //y2=0
r363 (  75 82 ) resistor r=20.437 //w=0.357 //l=0.57 //layer=li \
 //thickness=0.1 //x=9.45 //y=0 //x2=8.88 //y2=0
r364 (  71 149 ) resistor r=4.11603 //w=0.68 //l=0.17 //layer=li \
 //thickness=0.1 //x=5.885 //y=0.17 //x2=5.885 //y2=0
r365 (  71 162 ) resistor r=54.4171 //w=0.187 //l=0.795 //layer=li \
 //thickness=0.1 //x=5.885 //y=0.17 //x2=5.885 //y2=0.965
r366 (  68 148 ) resistor r=5.4201 //w=0.34 //l=0.17 //layer=li \
 //thickness=0.1 //x=4.98 //y=0 //x2=4.81 //y2=0
r367 (  68 70 ) resistor r=20.437 //w=0.357 //l=0.57 //layer=li \
 //thickness=0.1 //x=4.98 //y=0 //x2=5.55 //y2=0
r368 (  67 149 ) resistor r=2.94794 //w=0.34 //l=0.085 //layer=li \
 //thickness=0.1 //x=5.8 //y=0 //x2=5.885 //y2=0
r369 (  67 70 ) resistor r=8.96359 //w=0.357 //l=0.25 //layer=li \
 //thickness=0.1 //x=5.8 //y=0 //x2=5.55 //y2=0
r370 (  62 64 ) resistor r=39.7983 //w=0.357 //l=1.11 //layer=li \
 //thickness=0.1 //x=2.96 //y=0 //x2=4.07 //y2=0
r371 (  60 62 ) resistor r=39.7983 //w=0.357 //l=1.11 //layer=li \
 //thickness=0.1 //x=1.85 //y=0 //x2=2.96 //y2=0
r372 (  58 147 ) resistor r=2.94794 //w=0.34 //l=0.085 //layer=li \
 //thickness=0.1 //x=1.16 //y=0 //x2=1.075 //y2=0
r373 (  58 60 ) resistor r=24.7395 //w=0.357 //l=0.69 //layer=li \
 //thickness=0.1 //x=1.16 //y=0 //x2=1.85 //y2=0
r374 (  57 148 ) resistor r=5.4201 //w=0.34 //l=0.17 //layer=li \
 //thickness=0.1 //x=4.64 //y=0 //x2=4.81 //y2=0
r375 (  57 64 ) resistor r=20.437 //w=0.357 //l=0.57 //layer=li \
 //thickness=0.1 //x=4.64 //y=0 //x2=4.07 //y2=0
r376 (  53 147 ) resistor r=4.11603 //w=0.68 //l=0.17 //layer=li \
 //thickness=0.1 //x=1.075 //y=0.17 //x2=1.075 //y2=0
r377 (  53 161 ) resistor r=54.4171 //w=0.187 //l=0.795 //layer=li \
 //thickness=0.1 //x=1.075 //y=0.17 //x2=1.075 //y2=0.965
r378 (  49 147 ) resistor r=2.94794 //w=0.34 //l=0.085 //layer=li \
 //thickness=0.1 //x=0.99 //y=0 //x2=1.075 //y2=0
r379 (  49 52 ) resistor r=8.96359 //w=0.357 //l=0.25 //layer=li \
 //thickness=0.1 //x=0.99 //y=0 //x2=0.74 //y2=0
r380 (  45 144 ) resistor r=9.3 //w=0.17 //l=0.17 //layer=mcon //count=1 \
 //x=25.53 //y=0 //x2=25.53 //y2=0
r381 (  43 142 ) resistor r=3.1 //w=0.17 //l=0.51 //layer=mcon //count=3 \
 //x=24.79 //y=0 //x2=24.79 //y2=0
r382 (  43 45 ) resistor r=0.307309 //w=0.301 //l=0.74 //layer=m1 \
 //thickness=0.36 //x=24.79 //y=0 //x2=25.53 //y2=0
r383 (  41 160 ) resistor r=3.1 //w=0.17 //l=0.51 //layer=mcon //count=3 \
 //x=23.68 //y=0 //x2=23.68 //y2=0
r384 (  41 43 ) resistor r=0.460963 //w=0.301 //l=1.11 //layer=m1 \
 //thickness=0.36 //x=23.68 //y=0 //x2=24.79 //y2=0
r385 (  39 130 ) resistor r=3.1 //w=0.17 //l=0.51 //layer=mcon //count=3 \
 //x=22.2 //y=0 //x2=22.2 //y2=0
r386 (  39 41 ) resistor r=0.614618 //w=0.301 //l=1.48 //layer=m1 \
 //thickness=0.36 //x=22.2 //y=0 //x2=23.68 //y2=0
r387 (  37 128 ) resistor r=3.1 //w=0.17 //l=0.51 //layer=mcon //count=3 \
 //x=21.09 //y=0 //x2=21.09 //y2=0
r388 (  37 39 ) resistor r=0.460963 //w=0.301 //l=1.11 //layer=m1 \
 //thickness=0.36 //x=21.09 //y=0 //x2=22.2 //y2=0
r389 (  35 126 ) resistor r=3.1 //w=0.17 //l=0.51 //layer=mcon //count=3 \
 //x=19.98 //y=0 //x2=19.98 //y2=0
r390 (  35 37 ) resistor r=0.460963 //w=0.301 //l=1.11 //layer=m1 \
 //thickness=0.36 //x=19.98 //y=0 //x2=21.09 //y2=0
r391 (  33 157 ) resistor r=3.1 //w=0.17 //l=0.51 //layer=mcon //count=3 \
 //x=18.87 //y=0 //x2=18.87 //y2=0
r392 (  33 35 ) resistor r=0.460963 //w=0.301 //l=1.11 //layer=m1 \
 //thickness=0.36 //x=18.87 //y=0 //x2=19.98 //y2=0
r393 (  31 114 ) resistor r=3.1 //w=0.17 //l=0.51 //layer=mcon //count=3 \
 //x=17.39 //y=0 //x2=17.39 //y2=0
r394 (  31 33 ) resistor r=0.614618 //w=0.301 //l=1.48 //layer=m1 \
 //thickness=0.36 //x=17.39 //y=0 //x2=18.87 //y2=0
r395 (  29 112 ) resistor r=3.1 //w=0.17 //l=0.51 //layer=mcon //count=3 \
 //x=16.28 //y=0 //x2=16.28 //y2=0
r396 (  29 31 ) resistor r=0.460963 //w=0.301 //l=1.11 //layer=m1 \
 //thickness=0.36 //x=16.28 //y=0 //x2=17.39 //y2=0
r397 (  27 110 ) resistor r=3.1 //w=0.17 //l=0.51 //layer=mcon //count=3 \
 //x=15.17 //y=0 //x2=15.17 //y2=0
r398 (  27 29 ) resistor r=0.460963 //w=0.301 //l=1.11 //layer=m1 \
 //thickness=0.36 //x=15.17 //y=0 //x2=16.28 //y2=0
r399 (  25 154 ) resistor r=3.1 //w=0.17 //l=0.51 //layer=mcon //count=3 \
 //x=14.06 //y=0 //x2=14.06 //y2=0
r400 (  25 27 ) resistor r=0.460963 //w=0.301 //l=1.11 //layer=m1 \
 //thickness=0.36 //x=14.06 //y=0 //x2=15.17 //y2=0
r401 (  23 98 ) resistor r=3.1 //w=0.17 //l=0.51 //layer=mcon //count=3 \
 //x=12.58 //y=0 //x2=12.58 //y2=0
r402 (  23 25 ) resistor r=0.614618 //w=0.301 //l=1.48 //layer=m1 \
 //thickness=0.36 //x=12.58 //y=0 //x2=14.06 //y2=0
r403 (  21 96 ) resistor r=3.1 //w=0.17 //l=0.51 //layer=mcon //count=3 \
 //x=11.47 //y=0 //x2=11.47 //y2=0
r404 (  21 23 ) resistor r=0.460963 //w=0.301 //l=1.11 //layer=m1 \
 //thickness=0.36 //x=11.47 //y=0 //x2=12.58 //y2=0
r405 (  19 88 ) resistor r=3.1 //w=0.17 //l=0.51 //layer=mcon //count=3 \
 //x=10.36 //y=0 //x2=10.36 //y2=0
r406 (  19 21 ) resistor r=0.460963 //w=0.301 //l=1.11 //layer=m1 \
 //thickness=0.36 //x=10.36 //y=0 //x2=11.47 //y2=0
r407 (  17 82 ) resistor r=3.1 //w=0.17 //l=0.51 //layer=mcon //count=3 \
 //x=8.88 //y=0 //x2=8.88 //y2=0
r408 (  17 19 ) resistor r=0.614618 //w=0.301 //l=1.48 //layer=m1 \
 //thickness=0.36 //x=8.88 //y=0 //x2=10.36 //y2=0
r409 (  15 80 ) resistor r=3.1 //w=0.17 //l=0.51 //layer=mcon //count=3 \
 //x=7.77 //y=0 //x2=7.77 //y2=0
r410 (  15 17 ) resistor r=0.460963 //w=0.301 //l=1.11 //layer=m1 \
 //thickness=0.36 //x=7.77 //y=0 //x2=8.88 //y2=0
r411 (  13 78 ) resistor r=3.1 //w=0.17 //l=0.51 //layer=mcon //count=3 \
 //x=6.66 //y=0 //x2=6.66 //y2=0
r412 (  13 15 ) resistor r=0.460963 //w=0.301 //l=1.11 //layer=m1 \
 //thickness=0.36 //x=6.66 //y=0 //x2=7.77 //y2=0
r413 (  11 70 ) resistor r=3.1 //w=0.17 //l=0.51 //layer=mcon //count=3 \
 //x=5.55 //y=0 //x2=5.55 //y2=0
r414 (  11 13 ) resistor r=0.460963 //w=0.301 //l=1.11 //layer=m1 \
 //thickness=0.36 //x=5.55 //y=0 //x2=6.66 //y2=0
r415 (  9 64 ) resistor r=3.1 //w=0.17 //l=0.51 //layer=mcon //count=3 \
 //x=4.07 //y=0 //x2=4.07 //y2=0
r416 (  9 11 ) resistor r=0.614618 //w=0.301 //l=1.48 //layer=m1 \
 //thickness=0.36 //x=4.07 //y=0 //x2=5.55 //y2=0
r417 (  7 62 ) resistor r=3.1 //w=0.17 //l=0.51 //layer=mcon //count=3 \
 //x=2.96 //y=0 //x2=2.96 //y2=0
r418 (  7 9 ) resistor r=0.460963 //w=0.301 //l=1.11 //layer=m1 \
 //thickness=0.36 //x=2.96 //y=0 //x2=4.07 //y2=0
r419 (  5 60 ) resistor r=3.1 //w=0.17 //l=0.51 //layer=mcon //count=3 \
 //x=1.85 //y=0 //x2=1.85 //y2=0
r420 (  5 7 ) resistor r=0.460963 //w=0.301 //l=1.11 //layer=m1 \
 //thickness=0.36 //x=1.85 //y=0 //x2=2.96 //y2=0
r421 (  2 52 ) resistor r=3.1 //w=0.17 //l=0.51 //layer=mcon //count=3 \
 //x=0.74 //y=0 //x2=0.74 //y2=0
r422 (  2 5 ) resistor r=0.460963 //w=0.301 //l=1.11 //layer=m1 \
 //thickness=0.36 //x=0.74 //y=0 //x2=1.85 //y2=0
ends PM_DFFRNX1_PCELL\%noxref_1

subckt PM_DFFRNX1_PCELL\%noxref_2 ( 45 52 59 69 77 87 93 103 113 121 131 137 \
 145 153 163 169 177 185 195 205 211 219 227 237 247 253 261 271 284 291 296 \
 301 307 313 317 318 319 320 321 322 323 324 325 326 327 328 329 330 331 332 \
 333 334 335 336 337 338 )
c321 ( 338 0 ) capacitor c=0.0383753f //x=24.975 //y=5.02
c322 ( 337 0 ) capacitor c=0.0240874f //x=24.095 //y=5.02
c323 ( 336 0 ) capacitor c=0.0495444f //x=23.225 //y=5.02
c324 ( 335 0 ) capacitor c=0.0453059f //x=21.345 //y=5.02
c325 ( 334 0 ) capacitor c=0.02424f //x=20.465 //y=5.02
c326 ( 333 0 ) capacitor c=0.02424f //x=19.585 //y=5.02
c327 ( 332 0 ) capacitor c=0.0531793f //x=18.715 //y=5.02
c328 ( 331 0 ) capacitor c=0.0453059f //x=16.535 //y=5.02
c329 ( 330 0 ) capacitor c=0.02424f //x=15.655 //y=5.02
c330 ( 329 0 ) capacitor c=0.024152f //x=14.775 //y=5.02
c331 ( 328 0 ) capacitor c=0.0531894f //x=13.905 //y=5.02
c332 ( 327 0 ) capacitor c=0.0380679f //x=12.025 //y=5.02
c333 ( 326 0 ) capacitor c=0.024008f //x=11.145 //y=5.02
c334 ( 325 0 ) capacitor c=0.049209f //x=10.275 //y=5.02
c335 ( 324 0 ) capacitor c=0.0452179f //x=8.395 //y=5.02
c336 ( 323 0 ) capacitor c=0.024152f //x=7.515 //y=5.02
c337 ( 322 0 ) capacitor c=0.024152f //x=6.635 //y=5.02
c338 ( 321 0 ) capacitor c=0.053132f //x=5.765 //y=5.02
c339 ( 320 0 ) capacitor c=0.0452179f //x=3.585 //y=5.02
c340 ( 319 0 ) capacitor c=0.024152f //x=2.705 //y=5.02
c341 ( 318 0 ) capacitor c=0.02424f //x=1.825 //y=5.02
c342 ( 317 0 ) capacitor c=0.0531407f //x=0.955 //y=5.02
c343 ( 316 0 ) capacitor c=0.00591168f //x=25.12 //y=7.4
c344 ( 315 0 ) capacitor c=0.00591168f //x=24.24 //y=7.4
c345 ( 314 0 ) capacitor c=0.00591168f //x=23.36 //y=7.4
c346 ( 313 0 ) capacitor c=0.136856f //x=22.57 //y=7.4
c347 ( 312 0 ) capacitor c=0.00591168f //x=21.49 //y=7.4
c348 ( 311 0 ) capacitor c=0.00591168f //x=20.61 //y=7.4
c349 ( 310 0 ) capacitor c=0.00591168f //x=19.73 //y=7.4
c350 ( 309 0 ) capacitor c=0.00591168f //x=18.87 //y=7.4
c351 ( 307 0 ) capacitor c=0.15714f //x=17.76 //y=7.4
c352 ( 306 0 ) capacitor c=0.00591168f //x=16.68 //y=7.4
c353 ( 305 0 ) capacitor c=0.00591168f //x=15.8 //y=7.4
c354 ( 304 0 ) capacitor c=0.00591168f //x=14.92 //y=7.4
c355 ( 303 0 ) capacitor c=0.00591168f //x=14.06 //y=7.4
c356 ( 301 0 ) capacitor c=0.135038f //x=12.95 //y=7.4
c357 ( 300 0 ) capacitor c=0.00591168f //x=12.17 //y=7.4
c358 ( 299 0 ) capacitor c=0.00591168f //x=11.29 //y=7.4
c359 ( 298 0 ) capacitor c=0.00591168f //x=10.36 //y=7.4
c360 ( 296 0 ) capacitor c=0.134558f //x=9.62 //y=7.4
c361 ( 295 0 ) capacitor c=0.00591168f //x=8.54 //y=7.4
c362 ( 294 0 ) capacitor c=0.00591168f //x=7.66 //y=7.4
c363 ( 293 0 ) capacitor c=0.00591168f //x=6.78 //y=7.4
c364 ( 292 0 ) capacitor c=0.00591168f //x=5.9 //y=7.4
c365 ( 291 0 ) capacitor c=0.15519f //x=4.81 //y=7.4
c366 ( 290 0 ) capacitor c=0.00591168f //x=3.73 //y=7.4
c367 ( 289 0 ) capacitor c=0.00591168f //x=2.85 //y=7.4
c368 ( 288 0 ) capacitor c=0.00591168f //x=1.97 //y=7.4
c369 ( 287 0 ) capacitor c=0.00591168f //x=1.09 //y=7.4
c370 ( 284 0 ) capacitor c=0.237727f //x=25.53 //y=7.4
c371 ( 271 0 ) capacitor c=0.0284327f //x=25.035 //y=7.4
c372 ( 261 0 ) capacitor c=0.0288633f //x=24.155 //y=7.4
c373 ( 253 0 ) capacitor c=0.0240981f //x=23.275 //y=7.4
c374 ( 247 0 ) capacitor c=0.0395236f //x=22.4 //y=7.4
c375 ( 237 0 ) capacitor c=0.0288769f //x=21.405 //y=7.4
c376 ( 227 0 ) capacitor c=0.0287757f //x=20.525 //y=7.4
c377 ( 219 0 ) capacitor c=0.028511f //x=19.645 //y=7.4
c378 ( 211 0 ) capacitor c=0.0383672f //x=18.765 //y=7.4
c379 ( 205 0 ) capacitor c=0.0395206f //x=17.59 //y=7.4
c380 ( 195 0 ) capacitor c=0.0288769f //x=16.595 //y=7.4
c381 ( 185 0 ) capacitor c=0.0287624f //x=15.715 //y=7.4
c382 ( 177 0 ) capacitor c=0.0284966f //x=14.835 //y=7.4
c383 ( 169 0 ) capacitor c=0.0383672f //x=13.955 //y=7.4
c384 ( 163 0 ) capacitor c=0.0236224f //x=12.78 //y=7.4
c385 ( 153 0 ) capacitor c=0.0288359f //x=12.085 //y=7.4
c386 ( 145 0 ) capacitor c=0.0288369f //x=11.205 //y=7.4
c387 ( 137 0 ) capacitor c=0.0240981f //x=10.325 //y=7.4
c388 ( 131 0 ) capacitor c=0.0394667f //x=9.45 //y=7.4
c389 ( 121 0 ) capacitor c=0.0288488f //x=8.455 //y=7.4
c390 ( 113 0 ) capacitor c=0.0287514f //x=7.575 //y=7.4
c391 ( 103 0 ) capacitor c=0.0284966f //x=6.695 //y=7.4
c392 ( 93 0 ) capacitor c=0.0383672f //x=5.815 //y=7.4
c393 ( 87 0 ) capacitor c=0.0394667f //x=4.64 //y=7.4
c394 ( 77 0 ) capacitor c=0.0288488f //x=3.645 //y=7.4
c395 ( 69 0 ) capacitor c=0.0287505f //x=2.765 //y=7.4
c396 ( 59 0 ) capacitor c=0.028511f //x=1.885 //y=7.4
c397 ( 52 0 ) capacitor c=0.234426f //x=0.74 //y=7.4
c398 ( 49 0 ) capacitor c=0.0452081f //x=1.005 //y=7.4
c399 ( 45 0 ) capacitor c=0.902116f //x=25.53 //y=7.4
r400 (  282 316 ) resistor r=2.94794 //w=0.34 //l=0.085 //layer=li \
 //thickness=0.1 //x=25.205 //y=7.4 //x2=25.12 //y2=7.4
r401 (  282 284 ) resistor r=11.6527 //w=0.357 //l=0.325 //layer=li \
 //thickness=0.1 //x=25.205 //y=7.4 //x2=25.53 //y2=7.4
r402 (  275 316 ) resistor r=4.11603 //w=0.68 //l=0.17 //layer=li \
 //thickness=0.1 //x=25.12 //y=7.23 //x2=25.12 //y2=7.4
r403 (  275 338 ) resistor r=33.1979 //w=0.187 //l=0.485 //layer=li \
 //thickness=0.1 //x=25.12 //y=7.23 //x2=25.12 //y2=6.745
r404 (  272 315 ) resistor r=2.94794 //w=0.34 //l=0.085 //layer=li \
 //thickness=0.1 //x=24.325 //y=7.4 //x2=24.24 //y2=7.4
r405 (  272 274 ) resistor r=16.6723 //w=0.357 //l=0.465 //layer=li \
 //thickness=0.1 //x=24.325 //y=7.4 //x2=24.79 //y2=7.4
r406 (  271 316 ) resistor r=2.94794 //w=0.34 //l=0.085 //layer=li \
 //thickness=0.1 //x=25.035 //y=7.4 //x2=25.12 //y2=7.4
r407 (  271 274 ) resistor r=8.78431 //w=0.357 //l=0.245 //layer=li \
 //thickness=0.1 //x=25.035 //y=7.4 //x2=24.79 //y2=7.4
r408 (  265 315 ) resistor r=4.11603 //w=0.68 //l=0.17 //layer=li \
 //thickness=0.1 //x=24.24 //y=7.23 //x2=24.24 //y2=7.4
r409 (  265 337 ) resistor r=33.1979 //w=0.187 //l=0.485 //layer=li \
 //thickness=0.1 //x=24.24 //y=7.23 //x2=24.24 //y2=6.745
r410 (  262 314 ) resistor r=2.94794 //w=0.34 //l=0.085 //layer=li \
 //thickness=0.1 //x=23.445 //y=7.4 //x2=23.36 //y2=7.4
r411 (  262 264 ) resistor r=8.42577 //w=0.357 //l=0.235 //layer=li \
 //thickness=0.1 //x=23.445 //y=7.4 //x2=23.68 //y2=7.4
r412 (  261 315 ) resistor r=2.94794 //w=0.34 //l=0.085 //layer=li \
 //thickness=0.1 //x=24.155 //y=7.4 //x2=24.24 //y2=7.4
r413 (  261 264 ) resistor r=17.0308 //w=0.357 //l=0.475 //layer=li \
 //thickness=0.1 //x=24.155 //y=7.4 //x2=23.68 //y2=7.4
r414 (  255 314 ) resistor r=4.11603 //w=0.68 //l=0.17 //layer=li \
 //thickness=0.1 //x=23.36 //y=7.23 //x2=23.36 //y2=7.4
r415 (  255 336 ) resistor r=56.4706 //w=0.187 //l=0.825 //layer=li \
 //thickness=0.1 //x=23.36 //y=7.23 //x2=23.36 //y2=6.405
r416 (  254 313 ) resistor r=5.4201 //w=0.34 //l=0.17 //layer=li \
 //thickness=0.1 //x=22.74 //y=7.4 //x2=22.57 //y2=7.4
r417 (  253 314 ) resistor r=2.94794 //w=0.34 //l=0.085 //layer=li \
 //thickness=0.1 //x=23.275 //y=7.4 //x2=23.36 //y2=7.4
r418 (  253 254 ) resistor r=19.1821 //w=0.357 //l=0.535 //layer=li \
 //thickness=0.1 //x=23.275 //y=7.4 //x2=22.74 //y2=7.4
r419 (  248 312 ) resistor r=2.94794 //w=0.34 //l=0.085 //layer=li \
 //thickness=0.1 //x=21.575 //y=7.4 //x2=21.49 //y2=7.4
r420 (  248 250 ) resistor r=22.409 //w=0.357 //l=0.625 //layer=li \
 //thickness=0.1 //x=21.575 //y=7.4 //x2=22.2 //y2=7.4
r421 (  247 313 ) resistor r=5.4201 //w=0.34 //l=0.17 //layer=li \
 //thickness=0.1 //x=22.4 //y=7.4 //x2=22.57 //y2=7.4
r422 (  247 250 ) resistor r=7.17087 //w=0.357 //l=0.2 //layer=li \
 //thickness=0.1 //x=22.4 //y=7.4 //x2=22.2 //y2=7.4
r423 (  241 312 ) resistor r=4.11603 //w=0.68 //l=0.17 //layer=li \
 //thickness=0.1 //x=21.49 //y=7.23 //x2=21.49 //y2=7.4
r424 (  241 335 ) resistor r=33.1979 //w=0.187 //l=0.485 //layer=li \
 //thickness=0.1 //x=21.49 //y=7.23 //x2=21.49 //y2=6.745
r425 (  238 311 ) resistor r=2.94794 //w=0.34 //l=0.085 //layer=li \
 //thickness=0.1 //x=20.695 //y=7.4 //x2=20.61 //y2=7.4
r426 (  238 240 ) resistor r=14.1625 //w=0.357 //l=0.395 //layer=li \
 //thickness=0.1 //x=20.695 //y=7.4 //x2=21.09 //y2=7.4
r427 (  237 312 ) resistor r=2.94794 //w=0.34 //l=0.085 //layer=li \
 //thickness=0.1 //x=21.405 //y=7.4 //x2=21.49 //y2=7.4
r428 (  237 240 ) resistor r=11.2941 //w=0.357 //l=0.315 //layer=li \
 //thickness=0.1 //x=21.405 //y=7.4 //x2=21.09 //y2=7.4
r429 (  231 311 ) resistor r=4.11603 //w=0.68 //l=0.17 //layer=li \
 //thickness=0.1 //x=20.61 //y=7.23 //x2=20.61 //y2=7.4
r430 (  231 334 ) resistor r=33.1979 //w=0.187 //l=0.485 //layer=li \
 //thickness=0.1 //x=20.61 //y=7.23 //x2=20.61 //y2=6.745
r431 (  228 310 ) resistor r=2.94794 //w=0.34 //l=0.085 //layer=li \
 //thickness=0.1 //x=19.815 //y=7.4 //x2=19.73 //y2=7.4
r432 (  228 230 ) resistor r=5.91597 //w=0.357 //l=0.165 //layer=li \
 //thickness=0.1 //x=19.815 //y=7.4 //x2=19.98 //y2=7.4
r433 (  227 311 ) resistor r=2.94794 //w=0.34 //l=0.085 //layer=li \
 //thickness=0.1 //x=20.525 //y=7.4 //x2=20.61 //y2=7.4
r434 (  227 230 ) resistor r=19.5406 //w=0.357 //l=0.545 //layer=li \
 //thickness=0.1 //x=20.525 //y=7.4 //x2=19.98 //y2=7.4
r435 (  221 310 ) resistor r=4.11603 //w=0.68 //l=0.17 //layer=li \
 //thickness=0.1 //x=19.73 //y=7.23 //x2=19.73 //y2=7.4
r436 (  221 333 ) resistor r=33.1979 //w=0.187 //l=0.485 //layer=li \
 //thickness=0.1 //x=19.73 //y=7.23 //x2=19.73 //y2=6.745
r437 (  220 309 ) resistor r=2.94794 //w=0.34 //l=0.085 //layer=li \
 //thickness=0.1 //x=18.935 //y=7.4 //x2=18.85 //y2=7.4
r438 (  219 310 ) resistor r=2.94794 //w=0.34 //l=0.085 //layer=li \
 //thickness=0.1 //x=19.645 //y=7.4 //x2=19.73 //y2=7.4
r439 (  219 220 ) resistor r=25.4566 //w=0.357 //l=0.71 //layer=li \
 //thickness=0.1 //x=19.645 //y=7.4 //x2=18.935 //y2=7.4
r440 (  213 309 ) resistor r=4.11603 //w=0.68 //l=0.17 //layer=li \
 //thickness=0.1 //x=18.85 //y=7.23 //x2=18.85 //y2=7.4
r441 (  213 332 ) resistor r=56.4706 //w=0.187 //l=0.825 //layer=li \
 //thickness=0.1 //x=18.85 //y=7.23 //x2=18.85 //y2=6.405
r442 (  212 307 ) resistor r=5.4201 //w=0.34 //l=0.17 //layer=li \
 //thickness=0.1 //x=17.93 //y=7.4 //x2=17.76 //y2=7.4
r443 (  211 309 ) resistor r=2.94794 //w=0.34 //l=0.085 //layer=li \
 //thickness=0.1 //x=18.765 //y=7.4 //x2=18.85 //y2=7.4
r444 (  211 212 ) resistor r=29.9384 //w=0.357 //l=0.835 //layer=li \
 //thickness=0.1 //x=18.765 //y=7.4 //x2=17.93 //y2=7.4
r445 (  206 306 ) resistor r=2.94794 //w=0.34 //l=0.085 //layer=li \
 //thickness=0.1 //x=16.765 //y=7.4 //x2=16.68 //y2=7.4
r446 (  206 208 ) resistor r=22.409 //w=0.357 //l=0.625 //layer=li \
 //thickness=0.1 //x=16.765 //y=7.4 //x2=17.39 //y2=7.4
r447 (  205 307 ) resistor r=5.4201 //w=0.34 //l=0.17 //layer=li \
 //thickness=0.1 //x=17.59 //y=7.4 //x2=17.76 //y2=7.4
r448 (  205 208 ) resistor r=7.17087 //w=0.357 //l=0.2 //layer=li \
 //thickness=0.1 //x=17.59 //y=7.4 //x2=17.39 //y2=7.4
r449 (  199 306 ) resistor r=4.11603 //w=0.68 //l=0.17 //layer=li \
 //thickness=0.1 //x=16.68 //y=7.23 //x2=16.68 //y2=7.4
r450 (  199 331 ) resistor r=33.1979 //w=0.187 //l=0.485 //layer=li \
 //thickness=0.1 //x=16.68 //y=7.23 //x2=16.68 //y2=6.745
r451 (  196 305 ) resistor r=2.94794 //w=0.34 //l=0.085 //layer=li \
 //thickness=0.1 //x=15.885 //y=7.4 //x2=15.8 //y2=7.4
r452 (  196 198 ) resistor r=14.1625 //w=0.357 //l=0.395 //layer=li \
 //thickness=0.1 //x=15.885 //y=7.4 //x2=16.28 //y2=7.4
r453 (  195 306 ) resistor r=2.94794 //w=0.34 //l=0.085 //layer=li \
 //thickness=0.1 //x=16.595 //y=7.4 //x2=16.68 //y2=7.4
r454 (  195 198 ) resistor r=11.2941 //w=0.357 //l=0.315 //layer=li \
 //thickness=0.1 //x=16.595 //y=7.4 //x2=16.28 //y2=7.4
r455 (  189 305 ) resistor r=4.11603 //w=0.68 //l=0.17 //layer=li \
 //thickness=0.1 //x=15.8 //y=7.23 //x2=15.8 //y2=7.4
r456 (  189 330 ) resistor r=33.1979 //w=0.187 //l=0.485 //layer=li \
 //thickness=0.1 //x=15.8 //y=7.23 //x2=15.8 //y2=6.745
r457 (  186 304 ) resistor r=2.94794 //w=0.34 //l=0.085 //layer=li \
 //thickness=0.1 //x=15.005 //y=7.4 //x2=14.92 //y2=7.4
r458 (  186 188 ) resistor r=5.91597 //w=0.357 //l=0.165 //layer=li \
 //thickness=0.1 //x=15.005 //y=7.4 //x2=15.17 //y2=7.4
r459 (  185 305 ) resistor r=2.94794 //w=0.34 //l=0.085 //layer=li \
 //thickness=0.1 //x=15.715 //y=7.4 //x2=15.8 //y2=7.4
r460 (  185 188 ) resistor r=19.5406 //w=0.357 //l=0.545 //layer=li \
 //thickness=0.1 //x=15.715 //y=7.4 //x2=15.17 //y2=7.4
r461 (  179 304 ) resistor r=4.11603 //w=0.68 //l=0.17 //layer=li \
 //thickness=0.1 //x=14.92 //y=7.23 //x2=14.92 //y2=7.4
r462 (  179 329 ) resistor r=33.1979 //w=0.187 //l=0.485 //layer=li \
 //thickness=0.1 //x=14.92 //y=7.23 //x2=14.92 //y2=6.745
r463 (  178 303 ) resistor r=2.94794 //w=0.34 //l=0.085 //layer=li \
 //thickness=0.1 //x=14.125 //y=7.4 //x2=14.04 //y2=7.4
r464 (  177 304 ) resistor r=2.94794 //w=0.34 //l=0.085 //layer=li \
 //thickness=0.1 //x=14.835 //y=7.4 //x2=14.92 //y2=7.4
r465 (  177 178 ) resistor r=25.4566 //w=0.357 //l=0.71 //layer=li \
 //thickness=0.1 //x=14.835 //y=7.4 //x2=14.125 //y2=7.4
r466 (  171 303 ) resistor r=4.11603 //w=0.68 //l=0.17 //layer=li \
 //thickness=0.1 //x=14.04 //y=7.23 //x2=14.04 //y2=7.4
r467 (  171 328 ) resistor r=56.4706 //w=0.187 //l=0.825 //layer=li \
 //thickness=0.1 //x=14.04 //y=7.23 //x2=14.04 //y2=6.405
r468 (  170 301 ) resistor r=5.4201 //w=0.34 //l=0.17 //layer=li \
 //thickness=0.1 //x=13.12 //y=7.4 //x2=12.95 //y2=7.4
r469 (  169 303 ) resistor r=2.94794 //w=0.34 //l=0.085 //layer=li \
 //thickness=0.1 //x=13.955 //y=7.4 //x2=14.04 //y2=7.4
r470 (  169 170 ) resistor r=29.9384 //w=0.357 //l=0.835 //layer=li \
 //thickness=0.1 //x=13.955 //y=7.4 //x2=13.12 //y2=7.4
r471 (  164 300 ) resistor r=2.94794 //w=0.34 //l=0.085 //layer=li \
 //thickness=0.1 //x=12.255 //y=7.4 //x2=12.17 //y2=7.4
r472 (  164 166 ) resistor r=11.6527 //w=0.357 //l=0.325 //layer=li \
 //thickness=0.1 //x=12.255 //y=7.4 //x2=12.58 //y2=7.4
r473 (  163 301 ) resistor r=5.4201 //w=0.34 //l=0.17 //layer=li \
 //thickness=0.1 //x=12.78 //y=7.4 //x2=12.95 //y2=7.4
r474 (  163 166 ) resistor r=7.17087 //w=0.357 //l=0.2 //layer=li \
 //thickness=0.1 //x=12.78 //y=7.4 //x2=12.58 //y2=7.4
r475 (  157 300 ) resistor r=4.11603 //w=0.68 //l=0.17 //layer=li \
 //thickness=0.1 //x=12.17 //y=7.23 //x2=12.17 //y2=7.4
r476 (  157 327 ) resistor r=33.1979 //w=0.187 //l=0.485 //layer=li \
 //thickness=0.1 //x=12.17 //y=7.23 //x2=12.17 //y2=6.745
r477 (  154 299 ) resistor r=2.94794 //w=0.34 //l=0.085 //layer=li \
 //thickness=0.1 //x=11.375 //y=7.4 //x2=11.29 //y2=7.4
r478 (  154 156 ) resistor r=3.40616 //w=0.357 //l=0.095 //layer=li \
 //thickness=0.1 //x=11.375 //y=7.4 //x2=11.47 //y2=7.4
r479 (  153 300 ) resistor r=2.94794 //w=0.34 //l=0.085 //layer=li \
 //thickness=0.1 //x=12.085 //y=7.4 //x2=12.17 //y2=7.4
r480 (  153 156 ) resistor r=22.0504 //w=0.357 //l=0.615 //layer=li \
 //thickness=0.1 //x=12.085 //y=7.4 //x2=11.47 //y2=7.4
r481 (  147 299 ) resistor r=4.11603 //w=0.68 //l=0.17 //layer=li \
 //thickness=0.1 //x=11.29 //y=7.23 //x2=11.29 //y2=7.4
r482 (  147 326 ) resistor r=33.1979 //w=0.187 //l=0.485 //layer=li \
 //thickness=0.1 //x=11.29 //y=7.23 //x2=11.29 //y2=6.745
r483 (  146 298 ) resistor r=2.94794 //w=0.34 //l=0.085 //layer=li \
 //thickness=0.1 //x=10.495 //y=7.4 //x2=10.41 //y2=7.4
r484 (  145 299 ) resistor r=2.94794 //w=0.34 //l=0.085 //layer=li \
 //thickness=0.1 //x=11.205 //y=7.4 //x2=11.29 //y2=7.4
r485 (  145 146 ) resistor r=25.4566 //w=0.357 //l=0.71 //layer=li \
 //thickness=0.1 //x=11.205 //y=7.4 //x2=10.495 //y2=7.4
r486 (  139 298 ) resistor r=4.11603 //w=0.68 //l=0.17 //layer=li \