// File: DFFRNQX1.spi.DFFRNQX1.pxi
// Created: Tue Oct 15 15:46:28 2024
// 
simulator lang=spectre
x_PM_DFFRNQX1\%GND ( GND N_GND_c_8_p N_GND_c_117_p N_GND_c_1_p N_GND_c_9_p \
 N_GND_c_10_p N_GND_c_58_p N_GND_c_17_p N_GND_c_24_p N_GND_c_32_p N_GND_c_39_p \
 N_GND_c_61_p N_GND_c_68_p N_GND_c_92_p N_GND_c_2_p N_GND_c_3_p N_GND_c_4_p \
 N_GND_c_5_p N_GND_c_6_p N_GND_c_7_p N_GND_M0_noxref_d N_GND_M3_noxref_d \
 N_GND_M6_noxref_d N_GND_M8_noxref_d N_GND_M11_noxref_d N_GND_M14_noxref_d )  \
 PM_DFFRNQX1\%GND
x_PM_DFFRNQX1\%VDD ( VDD N_VDD_c_292_p N_VDD_c_284_n N_VDD_c_396_p \
 N_VDD_c_387_p N_VDD_c_310_p N_VDD_c_366_p N_VDD_c_367_p N_VDD_c_293_p \
 N_VDD_c_294_p N_VDD_c_300_p N_VDD_c_304_p N_VDD_c_370_p N_VDD_c_308_p \
 N_VDD_c_336_p N_VDD_c_372_p N_VDD_c_373_p N_VDD_c_348_p N_VDD_c_391_p \
 N_VDD_c_451_p N_VDD_c_507_p N_VDD_c_508_p N_VDD_c_420_p N_VDD_c_455_p \
 N_VDD_c_467_p N_VDD_c_471_p N_VDD_c_511_p N_VDD_c_475_p N_VDD_c_551_p \
 N_VDD_c_285_n N_VDD_c_286_n N_VDD_c_287_n N_VDD_c_288_n N_VDD_c_289_n \
 N_VDD_c_290_n N_VDD_M16_noxref_s N_VDD_M17_noxref_d N_VDD_M19_noxref_d \
 N_VDD_M21_noxref_d N_VDD_M22_noxref_s N_VDD_M23_noxref_d N_VDD_M25_noxref_d \
 N_VDD_M27_noxref_d N_VDD_M28_noxref_s N_VDD_M29_noxref_d N_VDD_M31_noxref_d \
 N_VDD_M32_noxref_s N_VDD_M33_noxref_d N_VDD_M35_noxref_d N_VDD_M37_noxref_d \
 N_VDD_M38_noxref_s N_VDD_M39_noxref_d N_VDD_M41_noxref_d N_VDD_M43_noxref_d \
 N_VDD_M44_noxref_s N_VDD_M45_noxref_d N_VDD_M47_noxref_d )  PM_DFFRNQX1\%VDD
x_PM_DFFRNQX1\%noxref_3 ( N_noxref_3_c_607_n N_noxref_3_c_611_n \
 N_noxref_3_c_612_n N_noxref_3_c_710_p N_noxref_3_c_613_n N_noxref_3_c_628_n \
 N_noxref_3_c_632_n N_noxref_3_c_634_n N_noxref_3_c_638_n N_noxref_3_c_614_n \
 N_noxref_3_c_748_p N_noxref_3_c_642_n N_noxref_3_c_615_n N_noxref_3_c_827_p \
 N_noxref_3_c_758_p N_noxref_3_M2_noxref_g N_noxref_3_M6_noxref_g \
 N_noxref_3_M20_noxref_g N_noxref_3_M21_noxref_g N_noxref_3_M28_noxref_g \
 N_noxref_3_M29_noxref_g N_noxref_3_c_696_p N_noxref_3_c_697_p \
 N_noxref_3_c_698_p N_noxref_3_c_738_p N_noxref_3_c_718_p N_noxref_3_c_740_p \
 N_noxref_3_c_719_p N_noxref_3_c_616_n N_noxref_3_c_618_n N_noxref_3_c_619_n \
 N_noxref_3_c_620_n N_noxref_3_c_621_n N_noxref_3_c_622_n N_noxref_3_c_623_n \
 N_noxref_3_c_625_n N_noxref_3_c_691_p N_noxref_3_c_701_p N_noxref_3_c_686_p \
 N_noxref_3_c_654_n N_noxref_3_M5_noxref_d N_noxref_3_M22_noxref_d \
 N_noxref_3_M24_noxref_d N_noxref_3_M26_noxref_d )  PM_DFFRNQX1\%noxref_3
x_PM_DFFRNQX1\%noxref_4 ( N_noxref_4_c_853_n N_noxref_4_c_901_n \
 N_noxref_4_c_870_n N_noxref_4_c_874_n N_noxref_4_c_876_n N_noxref_4_c_854_n \
 N_noxref_4_c_942_p N_noxref_4_c_855_n N_noxref_4_c_856_n N_noxref_4_c_969_p \
 N_noxref_4_M8_noxref_g N_noxref_4_M32_noxref_g N_noxref_4_M33_noxref_g \
 N_noxref_4_c_857_n N_noxref_4_c_859_n N_noxref_4_c_860_n N_noxref_4_c_861_n \
 N_noxref_4_c_862_n N_noxref_4_c_863_n N_noxref_4_c_864_n N_noxref_4_c_866_n \
 N_noxref_4_c_918_p N_noxref_4_c_888_n N_noxref_4_M7_noxref_d \
 N_noxref_4_M28_noxref_d N_noxref_4_M30_noxref_d )  PM_DFFRNQX1\%noxref_4
x_PM_DFFRNQX1\%CLK ( N_CLK_c_1002_n N_CLK_c_1019_n CLK CLK CLK CLK CLK CLK CLK \
 CLK CLK N_CLK_c_1000_n N_CLK_c_1001_n N_CLK_M1_noxref_g N_CLK_M9_noxref_g \
 N_CLK_M18_noxref_g N_CLK_M19_noxref_g N_CLK_M34_noxref_g N_CLK_M35_noxref_g \
 N_CLK_c_1154_p N_CLK_c_1156_p N_CLK_c_1180_p N_CLK_c_1187_p N_CLK_c_1050_n \
 N_CLK_c_1051_n N_CLK_c_1052_n N_CLK_c_1053_n N_CLK_c_1056_n N_CLK_c_1073_n \
 N_CLK_c_1076_n N_CLK_c_1203_p N_CLK_c_1210_p N_CLK_c_1078_n N_CLK_c_1079_n \
 N_CLK_c_1080_n N_CLK_c_1081_n N_CLK_c_1125_p N_CLK_c_1057_n N_CLK_c_1083_n )  \
 PM_DFFRNQX1\%CLK
x_PM_DFFRNQX1\%noxref_6 ( N_noxref_6_c_1288_n N_noxref_6_c_1289_n \
 N_noxref_6_c_1215_n N_noxref_6_c_1296_n N_noxref_6_c_1240_n \
 N_noxref_6_c_1244_n N_noxref_6_c_1246_n N_noxref_6_c_1250_n \
 N_noxref_6_c_1216_n N_noxref_6_c_1303_n N_noxref_6_c_1254_n \
 N_noxref_6_c_1217_n N_noxref_6_c_1218_n N_noxref_6_c_1346_n \
 N_noxref_6_c_1312_n N_noxref_6_M3_noxref_g N_noxref_6_M11_noxref_g \
 N_noxref_6_M22_noxref_g N_noxref_6_M23_noxref_g N_noxref_6_M38_noxref_g \
 N_noxref_6_M39_noxref_g N_noxref_6_c_1219_n N_noxref_6_c_1221_n \
 N_noxref_6_c_1222_n N_noxref_6_c_1223_n N_noxref_6_c_1224_n \
 N_noxref_6_c_1225_n N_noxref_6_c_1226_n N_noxref_6_c_1228_n \
 N_noxref_6_c_1317_n N_noxref_6_c_1269_n N_noxref_6_c_1229_n \
 N_noxref_6_c_1231_n N_noxref_6_c_1232_n N_noxref_6_c_1233_n \
 N_noxref_6_c_1234_n N_noxref_6_c_1235_n N_noxref_6_c_1236_n \
 N_noxref_6_c_1238_n N_noxref_6_c_1364_p N_noxref_6_c_1271_n \
 N_noxref_6_M2_noxref_d N_noxref_6_M16_noxref_d N_noxref_6_M18_noxref_d \
 N_noxref_6_M20_noxref_d )  PM_DFFRNQX1\%noxref_6
x_PM_DFFRNQX1\%RN ( N_RN_c_1461_n N_RN_c_1469_n N_RN_c_1471_n N_RN_c_1475_n RN \
 RN RN RN RN RN RN RN RN RN RN RN RN N_RN_c_1476_n N_RN_c_1477_n N_RN_c_1478_n \
 N_RN_M5_noxref_g N_RN_M10_noxref_g N_RN_M12_noxref_g N_RN_M26_noxref_g \
 N_RN_M27_noxref_g N_RN_M36_noxref_g N_RN_M37_noxref_g N_RN_M40_noxref_g \
 N_RN_M41_noxref_g N_RN_c_1513_n N_RN_c_1514_n N_RN_c_1515_n N_RN_c_1516_n \
 N_RN_c_1517_n N_RN_c_1519_n N_RN_c_1520_n N_RN_c_1547_n N_RN_c_1548_n \
 N_RN_c_1549_n N_RN_c_1631_p N_RN_c_1614_p N_RN_c_1633_p N_RN_c_1615_p \
 N_RN_c_1575_n N_RN_c_1578_n N_RN_c_1718_p N_RN_c_1725_p N_RN_c_1580_n \
 N_RN_c_1581_n N_RN_c_1582_n N_RN_c_1583_n N_RN_c_1593_p N_RN_c_1522_n \
 N_RN_c_1523_n N_RN_c_1525_n N_RN_c_1551_n N_RN_c_1553_n N_RN_c_1554_n \
 N_RN_c_1585_n )  PM_DFFRNQX1\%RN
x_PM_DFFRNQX1\%noxref_8 ( N_noxref_8_c_1730_n N_noxref_8_c_1734_n \
 N_noxref_8_c_1748_n N_noxref_8_c_1752_n N_noxref_8_c_1754_n \
 N_noxref_8_c_1758_n N_noxref_8_c_1735_n N_noxref_8_c_1832_p \
 N_noxref_8_c_1762_n N_noxref_8_c_1736_n N_noxref_8_c_1795_n \
 N_noxref_8_c_1841_p N_noxref_8_M14_noxref_g N_noxref_8_M44_noxref_g \
 N_noxref_8_M45_noxref_g N_noxref_8_c_1737_n N_noxref_8_c_1739_n \
 N_noxref_8_c_1740_n N_noxref_8_c_1741_n N_noxref_8_c_1742_n \
 N_noxref_8_c_1743_n N_noxref_8_c_1744_n N_noxref_8_c_1746_n \
 N_noxref_8_c_1770_n N_noxref_8_M13_noxref_d N_noxref_8_M38_noxref_d \
 N_noxref_8_M40_noxref_d N_noxref_8_M42_noxref_d )  PM_DFFRNQX1\%noxref_8
x_PM_DFFRNQX1\%noxref_9 ( N_noxref_9_c_1886_n N_noxref_9_c_1887_n \
 N_noxref_9_c_1913_n N_noxref_9_c_1989_n N_noxref_9_c_1888_n \
 N_noxref_9_c_1926_n N_noxref_9_c_1889_n N_noxref_9_c_1991_n \
 N_noxref_9_c_1890_n N_noxref_9_c_1934_n N_noxref_9_c_1938_n \
 N_noxref_9_c_1940_n N_noxref_9_c_1944_n N_noxref_9_c_1892_n \
 N_noxref_9_c_2135_n N_noxref_9_c_1948_n N_noxref_9_c_2166_n \
 N_noxref_9_c_1893_n N_noxref_9_c_2071_n N_noxref_9_c_2143_n \
 N_noxref_9_M0_noxref_g N_noxref_9_M7_noxref_g N_noxref_9_M15_noxref_g \
 N_noxref_9_M16_noxref_g N_noxref_9_M17_noxref_g N_noxref_9_M30_noxref_g \
 N_noxref_9_M31_noxref_g N_noxref_9_M46_noxref_g N_noxref_9_M47_noxref_g \
 N_noxref_9_c_1895_n N_noxref_9_c_1897_n N_noxref_9_c_1898_n \
 N_noxref_9_c_1899_n N_noxref_9_c_1900_n N_noxref_9_c_1901_n \
 N_noxref_9_c_1902_n N_noxref_9_c_1904_n N_noxref_9_c_2086_n \
 N_noxref_9_c_1965_n N_noxref_9_c_2000_n N_noxref_9_c_2003_n \
 N_noxref_9_c_2005_n N_noxref_9_c_2035_n N_noxref_9_c_2037_n \
 N_noxref_9_c_2038_n N_noxref_9_c_2008_n N_noxref_9_c_2009_n \
 N_noxref_9_c_2175_n N_noxref_9_c_2178_n N_noxref_9_c_2180_n \
 N_noxref_9_c_2191_p N_noxref_9_c_2215_p N_noxref_9_c_2208_p \
 N_noxref_9_c_2183_n N_noxref_9_c_2184_n N_noxref_9_c_2010_n \
 N_noxref_9_c_2044_n N_noxref_9_c_2012_n N_noxref_9_c_2185_n \
 N_noxref_9_c_2199_p N_noxref_9_c_2187_n N_noxref_9_M10_noxref_d \
 N_noxref_9_M32_noxref_d N_noxref_9_M34_noxref_d N_noxref_9_M36_noxref_d )  \
 PM_DFFRNQX1\%noxref_9
x_PM_DFFRNQX1\%Q ( N_Q_c_2270_n N_Q_c_2271_n Q Q Q Q Q Q Q Q Q Q Q Q Q \
 N_Q_c_2273_n N_Q_c_2283_n N_Q_c_2287_n N_Q_c_2289_n N_Q_c_2274_n N_Q_c_2404_p \
 N_Q_c_2383_n N_Q_M13_noxref_g N_Q_M42_noxref_g N_Q_M43_noxref_g N_Q_c_2316_n \
 N_Q_c_2317_n N_Q_c_2318_n N_Q_c_2349_n N_Q_c_2350_n N_Q_c_2352_n N_Q_c_2353_n \
 N_Q_c_2319_n N_Q_c_2322_n N_Q_c_2323_n N_Q_M15_noxref_d N_Q_M44_noxref_d \
 N_Q_M46_noxref_d )  PM_DFFRNQX1\%Q
x_PM_DFFRNQX1\%noxref_11 ( N_noxref_11_c_2438_n N_noxref_11_c_2414_n \
 N_noxref_11_c_2418_n N_noxref_11_c_2421_n N_noxref_11_c_2431_n \
 N_noxref_11_M0_noxref_s )  PM_DFFRNQX1\%noxref_11
x_PM_DFFRNQX1\%noxref_12 ( N_noxref_12_c_2460_n N_noxref_12_c_2462_n \
 N_noxref_12_c_2465_n N_noxref_12_c_2467_n N_noxref_12_c_2478_n \
 N_noxref_12_M1_noxref_d N_noxref_12_M2_noxref_s )  PM_DFFRNQX1\%noxref_12
x_PM_DFFRNQX1\%D ( D D N_D_c_2512_n N_D_M4_noxref_g N_D_M24_noxref_g \
 N_D_M25_noxref_g N_D_c_2541_n N_D_c_2544_n N_D_c_2580_p N_D_c_2587_p \
 N_D_c_2546_n N_D_c_2547_n N_D_c_2548_n N_D_c_2549_n N_D_c_2526_n N_D_c_2527_n \
 )  PM_DFFRNQX1\%D
x_PM_DFFRNQX1\%noxref_14 ( N_noxref_14_c_2607_n N_noxref_14_c_2592_n \
 N_noxref_14_c_2596_n N_noxref_14_c_2599_n N_noxref_14_c_2609_n \
 N_noxref_14_M3_noxref_s )  PM_DFFRNQX1\%noxref_14
x_PM_DFFRNQX1\%noxref_15 ( N_noxref_15_c_2641_n N_noxref_15_c_2643_n \
 N_noxref_15_c_2646_n N_noxref_15_c_2648_n N_noxref_15_c_2657_n \
 N_noxref_15_M4_noxref_d N_noxref_15_M5_noxref_s )  PM_DFFRNQX1\%noxref_15
x_PM_DFFRNQX1\%noxref_16 ( N_noxref_16_c_2712_n N_noxref_16_c_2694_n \
 N_noxref_16_c_2698_n N_noxref_16_c_2701_n N_noxref_16_c_2702_n \
 N_noxref_16_c_2704_n N_noxref_16_M6_noxref_s )  PM_DFFRNQX1\%noxref_16
x_PM_DFFRNQX1\%noxref_17 ( N_noxref_17_c_2760_n N_noxref_17_c_2745_n \
 N_noxref_17_c_2749_n N_noxref_17_c_2752_n N_noxref_17_c_2774_n \
 N_noxref_17_M8_noxref_s )  PM_DFFRNQX1\%noxref_17
x_PM_DFFRNQX1\%noxref_18 ( N_noxref_18_c_2794_n N_noxref_18_c_2796_n \
 N_noxref_18_c_2799_n N_noxref_18_c_2801_n N_noxref_18_c_2826_n \
 N_noxref_18_M9_noxref_d N_noxref_18_M10_noxref_s )  PM_DFFRNQX1\%noxref_18
x_PM_DFFRNQX1\%noxref_19 ( N_noxref_19_c_2862_n N_noxref_19_c_2847_n \
 N_noxref_19_c_2851_n N_noxref_19_c_2854_n N_noxref_19_c_2876_n \
 N_noxref_19_M11_noxref_s )  PM_DFFRNQX1\%noxref_19
x_PM_DFFRNQX1\%noxref_20 ( N_noxref_20_c_2898_n N_noxref_20_c_2900_n \
 N_noxref_20_c_2903_n N_noxref_20_c_2905_n N_noxref_20_c_2925_n \
 N_noxref_20_M12_noxref_d N_noxref_20_M13_noxref_s )  PM_DFFRNQX1\%noxref_20
x_PM_DFFRNQX1\%noxref_21 ( N_noxref_21_c_2966_n N_noxref_21_c_2949_n \
 N_noxref_21_c_2953_n N_noxref_21_c_2956_n N_noxref_21_c_2957_n \
 N_noxref_21_c_2959_n N_noxref_21_M14_noxref_s )  PM_DFFRNQX1\%noxref_21
cc_1 ( N_GND_c_1_p N_VDD_c_284_n ) capacitor c=0.00989031f //x=0.37 //y=0 \
 //x2=0.74 //y2=7.4
cc_2 ( N_GND_c_2_p N_VDD_c_285_n ) capacitor c=0.00989031f //x=25.16 //y=0 \
 //x2=25.53 //y2=7.4
cc_3 ( N_GND_c_3_p N_VDD_c_286_n ) capacitor c=0.00500587f //x=4.81 //y=0 \
 //x2=4.81 //y2=7.4
cc_4 ( N_GND_c_4_p N_VDD_c_287_n ) capacitor c=0.00500587f //x=9.62 //y=0 \
 //x2=9.62 //y2=7.4
cc_5 ( N_GND_c_5_p N_VDD_c_288_n ) capacitor c=0.00500587f //x=12.95 //y=0 \
 //x2=12.95 //y2=7.4
cc_6 ( N_GND_c_6_p N_VDD_c_289_n ) capacitor c=0.00524516f //x=17.76 //y=0 \
 //x2=17.76 //y2=7.4
cc_7 ( N_GND_c_7_p N_VDD_c_290_n ) capacitor c=0.00500587f //x=22.57 //y=0 \
 //x2=22.57 //y2=7.4
cc_8 ( N_GND_c_8_p N_noxref_3_c_607_n ) capacitor c=0.0325053f //x=25.16 //y=0 \
 //x2=8.765 //y2=3.33
cc_9 ( N_GND_c_9_p N_noxref_3_c_607_n ) capacitor c=0.00174514f //x=4.64 //y=0 \
 //x2=8.765 //y2=3.33
cc_10 ( N_GND_c_10_p N_noxref_3_c_607_n ) capacitor c=0.00152503f //x=5.8 \
 //y=0 //x2=8.765 //y2=3.33
cc_11 ( N_GND_c_3_p N_noxref_3_c_607_n ) capacitor c=0.00820544f //x=4.81 \
 //y=0 //x2=8.765 //y2=3.33
cc_12 ( N_GND_c_8_p N_noxref_3_c_611_n ) capacitor c=0.00172266f //x=25.16 \
 //y=0 //x2=3.445 //y2=3.33
cc_13 ( N_GND_c_4_p N_noxref_3_c_612_n ) capacitor c=0.00582294f //x=9.62 \
 //y=0 //x2=10.615 //y2=3.33
cc_14 ( N_GND_c_3_p N_noxref_3_c_613_n ) capacitor c=9.53263e-19 //x=4.81 \
 //y=0 //x2=3.33 //y2=2.08
cc_15 ( N_GND_c_4_p N_noxref_3_c_614_n ) capacitor c=0.0432238f //x=9.62 //y=0 \
 //x2=8.795 //y2=1.665
cc_16 ( N_GND_c_4_p N_noxref_3_c_615_n ) capacitor c=0.0156446f //x=9.62 //y=0 \
 //x2=10.73 //y2=2.08
cc_17 ( N_GND_c_17_p N_noxref_3_c_616_n ) capacitor c=0.00135046f //x=10.715 \
 //y=0 //x2=10.535 //y2=0.865
cc_18 ( N_GND_M6_noxref_d N_noxref_3_c_616_n ) capacitor c=0.00220047f \
 //x=10.61 //y=0.865 //x2=10.535 //y2=0.865
cc_19 ( N_GND_M6_noxref_d N_noxref_3_c_618_n ) capacitor c=0.00255985f \
 //x=10.61 //y=0.865 //x2=10.535 //y2=1.21
cc_20 ( N_GND_c_4_p N_noxref_3_c_619_n ) capacitor c=0.00189421f //x=9.62 \
 //y=0 //x2=10.535 //y2=1.52
cc_21 ( N_GND_c_4_p N_noxref_3_c_620_n ) capacitor c=0.00992619f //x=9.62 \
 //y=0 //x2=10.535 //y2=1.915
cc_22 ( N_GND_M6_noxref_d N_noxref_3_c_621_n ) capacitor c=0.0131326f \
 //x=10.61 //y=0.865 //x2=10.91 //y2=0.71
cc_23 ( N_GND_M6_noxref_d N_noxref_3_c_622_n ) capacitor c=0.00193127f \
 //x=10.61 //y=0.865 //x2=10.91 //y2=1.365
cc_24 ( N_GND_c_24_p N_noxref_3_c_623_n ) capacitor c=0.00130622f //x=12.78 \
 //y=0 //x2=11.065 //y2=0.865
cc_25 ( N_GND_M6_noxref_d N_noxref_3_c_623_n ) capacitor c=0.00257848f \
 //x=10.61 //y=0.865 //x2=11.065 //y2=0.865
cc_26 ( N_GND_M6_noxref_d N_noxref_3_c_625_n ) capacitor c=0.00255985f \
 //x=10.61 //y=0.865 //x2=11.065 //y2=1.21
cc_27 ( N_GND_c_4_p N_noxref_3_M5_noxref_d ) capacitor c=0.00591582f //x=9.62 \
 //y=0 //x2=8.205 //y2=0.915
cc_28 ( N_GND_c_5_p N_noxref_4_c_853_n ) capacitor c=0.00582294f //x=12.95 \
 //y=0 //x2=13.945 //y2=3.33
cc_29 ( N_GND_c_5_p N_noxref_4_c_854_n ) capacitor c=0.0436242f //x=12.95 \
 //y=0 //x2=12.125 //y2=1.655
cc_30 ( N_GND_c_4_p N_noxref_4_c_855_n ) capacitor c=9.64732e-19 //x=9.62 \
 //y=0 //x2=12.21 //y2=3.33
cc_31 ( N_GND_c_5_p N_noxref_4_c_856_n ) capacitor c=0.0156442f //x=12.95 \
 //y=0 //x2=14.06 //y2=2.08
cc_32 ( N_GND_c_32_p N_noxref_4_c_857_n ) capacitor c=0.00132755f //x=13.94 \
 //y=0 //x2=13.76 //y2=0.875
cc_33 ( N_GND_M8_noxref_d N_noxref_4_c_857_n ) capacitor c=0.00211996f \
 //x=13.835 //y=0.875 //x2=13.76 //y2=0.875
cc_34 ( N_GND_M8_noxref_d N_noxref_4_c_859_n ) capacitor c=0.00255985f \
 //x=13.835 //y=0.875 //x2=13.76 //y2=1.22
cc_35 ( N_GND_c_5_p N_noxref_4_c_860_n ) capacitor c=0.00195164f //x=12.95 \
 //y=0 //x2=13.76 //y2=1.53
cc_36 ( N_GND_c_5_p N_noxref_4_c_861_n ) capacitor c=0.0110952f //x=12.95 \
 //y=0 //x2=13.76 //y2=1.915
cc_37 ( N_GND_M8_noxref_d N_noxref_4_c_862_n ) capacitor c=0.0131341f \
 //x=13.835 //y=0.875 //x2=14.135 //y2=0.72
cc_38 ( N_GND_M8_noxref_d N_noxref_4_c_863_n ) capacitor c=0.00193146f \
 //x=13.835 //y=0.875 //x2=14.135 //y2=1.375
cc_39 ( N_GND_c_39_p N_noxref_4_c_864_n ) capacitor c=0.00129018f //x=17.59 \
 //y=0 //x2=14.29 //y2=0.875
cc_40 ( N_GND_M8_noxref_d N_noxref_4_c_864_n ) capacitor c=0.00257848f \
 //x=13.835 //y=0.875 //x2=14.29 //y2=0.875
cc_41 ( N_GND_M8_noxref_d N_noxref_4_c_866_n ) capacitor c=0.00255985f \
 //x=13.835 //y=0.875 //x2=14.29 //y2=1.22
cc_42 ( N_GND_c_4_p N_noxref_4_M7_noxref_d ) capacitor c=8.58106e-19 //x=9.62 \
 //y=0 //x2=11.58 //y2=0.905
cc_43 ( N_GND_c_5_p N_noxref_4_M7_noxref_d ) capacitor c=0.00616547f //x=12.95 \
 //y=0 //x2=11.58 //y2=0.905
cc_44 ( N_GND_M6_noxref_d N_noxref_4_M7_noxref_d ) capacitor c=0.00143464f \
 //x=10.61 //y=0.865 //x2=11.58 //y2=0.905
cc_45 ( N_GND_c_1_p N_CLK_c_1000_n ) capacitor c=7.64246e-19 //x=0.37 //y=0 \
 //x2=2.22 //y2=2.08
cc_46 ( N_GND_c_5_p N_CLK_c_1001_n ) capacitor c=6.04789e-19 //x=12.95 //y=0 \
 //x2=15.17 //y2=2.08
cc_47 ( N_GND_c_6_p N_noxref_6_c_1215_n ) capacitor c=0.00390249f //x=17.76 \
 //y=0 //x2=18.755 //y2=3.7
cc_48 ( N_GND_c_3_p N_noxref_6_c_1216_n ) capacitor c=0.0459494f //x=4.81 \
 //y=0 //x2=3.985 //y2=1.665
cc_49 ( N_GND_c_3_p N_noxref_6_c_1217_n ) capacitor c=0.0178133f //x=4.81 \
 //y=0 //x2=5.92 //y2=2.08
cc_50 ( N_GND_c_6_p N_noxref_6_c_1218_n ) capacitor c=0.0155796f //x=17.76 \
 //y=0 //x2=18.87 //y2=2.08
cc_51 ( N_GND_c_10_p N_noxref_6_c_1219_n ) capacitor c=0.00132755f //x=5.8 \
 //y=0 //x2=5.62 //y2=0.875
cc_52 ( N_GND_M3_noxref_d N_noxref_6_c_1219_n ) capacitor c=0.00211996f \
 //x=5.695 //y=0.875 //x2=5.62 //y2=0.875
cc_53 ( N_GND_M3_noxref_d N_noxref_6_c_1221_n ) capacitor c=0.00255985f \
 //x=5.695 //y=0.875 //x2=5.62 //y2=1.22
cc_54 ( N_GND_c_3_p N_noxref_6_c_1222_n ) capacitor c=0.00204716f //x=4.81 \
 //y=0 //x2=5.62 //y2=1.53
cc_55 ( N_GND_c_3_p N_noxref_6_c_1223_n ) capacitor c=0.0118433f //x=4.81 \
 //y=0 //x2=5.62 //y2=1.915
cc_56 ( N_GND_M3_noxref_d N_noxref_6_c_1224_n ) capacitor c=0.0131341f \
 //x=5.695 //y=0.875 //x2=5.995 //y2=0.72
cc_57 ( N_GND_M3_noxref_d N_noxref_6_c_1225_n ) capacitor c=0.00193146f \
 //x=5.695 //y=0.875 //x2=5.995 //y2=1.375
cc_58 ( N_GND_c_58_p N_noxref_6_c_1226_n ) capacitor c=0.00129018f //x=9.45 \
 //y=0 //x2=6.15 //y2=0.875
cc_59 ( N_GND_M3_noxref_d N_noxref_6_c_1226_n ) capacitor c=0.00257848f \
 //x=5.695 //y=0.875 //x2=6.15 //y2=0.875
cc_60 ( N_GND_M3_noxref_d N_noxref_6_c_1228_n ) capacitor c=0.00255985f \
 //x=5.695 //y=0.875 //x2=6.15 //y2=1.22
cc_61 ( N_GND_c_61_p N_noxref_6_c_1229_n ) capacitor c=0.00132755f //x=18.75 \
 //y=0 //x2=18.57 //y2=0.875
cc_62 ( N_GND_M11_noxref_d N_noxref_6_c_1229_n ) capacitor c=0.00211996f \
 //x=18.645 //y=0.875 //x2=18.57 //y2=0.875
cc_63 ( N_GND_M11_noxref_d N_noxref_6_c_1231_n ) capacitor c=0.00255985f \
 //x=18.645 //y=0.875 //x2=18.57 //y2=1.22
cc_64 ( N_GND_c_6_p N_noxref_6_c_1232_n ) capacitor c=0.00204716f //x=17.76 \
 //y=0 //x2=18.57 //y2=1.53
cc_65 ( N_GND_c_6_p N_noxref_6_c_1233_n ) capacitor c=0.0110952f //x=17.76 \
 //y=0 //x2=18.57 //y2=1.915
cc_66 ( N_GND_M11_noxref_d N_noxref_6_c_1234_n ) capacitor c=0.0131341f \
 //x=18.645 //y=0.875 //x2=18.945 //y2=0.72
cc_67 ( N_GND_M11_noxref_d N_noxref_6_c_1235_n ) capacitor c=0.00193146f \
 //x=18.645 //y=0.875 //x2=18.945 //y2=1.375
cc_68 ( N_GND_c_68_p N_noxref_6_c_1236_n ) capacitor c=0.00129018f //x=22.4 \
 //y=0 //x2=19.1 //y2=0.875
cc_69 ( N_GND_M11_noxref_d N_noxref_6_c_1236_n ) capacitor c=0.00257848f \
 //x=18.645 //y=0.875 //x2=19.1 //y2=0.875
cc_70 ( N_GND_M11_noxref_d N_noxref_6_c_1238_n ) capacitor c=0.00255985f \
 //x=18.645 //y=0.875 //x2=19.1 //y2=1.22
cc_71 ( N_GND_c_3_p N_noxref_6_M2_noxref_d ) capacitor c=0.00591582f //x=4.81 \
 //y=0 //x2=3.395 //y2=0.915
cc_72 ( N_GND_c_8_p N_RN_c_1461_n ) capacitor c=0.0754669f //x=25.16 //y=0 \
 //x2=16.165 //y2=2.22
cc_73 ( N_GND_c_58_p N_RN_c_1461_n ) capacitor c=0.00318526f //x=9.45 //y=0 \
 //x2=16.165 //y2=2.22
cc_74 ( N_GND_c_17_p N_RN_c_1461_n ) capacitor c=0.00347653f //x=10.715 //y=0 \
 //x2=16.165 //y2=2.22
cc_75 ( N_GND_c_24_p N_RN_c_1461_n ) capacitor c=0.00411932f //x=12.78 //y=0 \
 //x2=16.165 //y2=2.22
cc_76 ( N_GND_c_32_p N_RN_c_1461_n ) capacitor c=0.00274252f //x=13.94 //y=0 \
 //x2=16.165 //y2=2.22
cc_77 ( N_GND_c_39_p N_RN_c_1461_n ) capacitor c=0.00111309f //x=17.59 //y=0 \
 //x2=16.165 //y2=2.22
cc_78 ( N_GND_c_4_p N_RN_c_1461_n ) capacitor c=0.0418818f //x=9.62 //y=0 \
 //x2=16.165 //y2=2.22
cc_79 ( N_GND_c_5_p N_RN_c_1461_n ) capacitor c=0.0418818f //x=12.95 //y=0 \
 //x2=16.165 //y2=2.22
cc_80 ( N_GND_c_8_p N_RN_c_1469_n ) capacitor c=0.00221055f //x=25.16 //y=0 \
 //x2=8.255 //y2=2.22
cc_81 ( N_GND_c_58_p N_RN_c_1469_n ) capacitor c=4.19033e-19 //x=9.45 //y=0 \
 //x2=8.255 //y2=2.22
cc_82 ( N_GND_c_8_p N_RN_c_1471_n ) capacitor c=0.0355836f //x=25.16 //y=0 \
 //x2=19.865 //y2=2.22
cc_83 ( N_GND_c_39_p N_RN_c_1471_n ) capacitor c=0.00318526f //x=17.59 //y=0 \
 //x2=19.865 //y2=2.22
cc_84 ( N_GND_c_61_p N_RN_c_1471_n ) capacitor c=0.00274252f //x=18.75 //y=0 \
 //x2=19.865 //y2=2.22
cc_85 ( N_GND_c_6_p N_RN_c_1471_n ) capacitor c=0.0430754f //x=17.76 //y=0 \
 //x2=19.865 //y2=2.22
cc_86 ( N_GND_c_8_p N_RN_c_1475_n ) capacitor c=0.00195247f //x=25.16 //y=0 \
 //x2=16.395 //y2=2.22
cc_87 ( N_GND_c_4_p N_RN_c_1476_n ) capacitor c=8.37259e-19 //x=9.62 //y=0 \
 //x2=8.14 //y2=2.08
cc_88 ( N_GND_c_6_p N_RN_c_1477_n ) capacitor c=8.37259e-19 //x=17.76 //y=0 \
 //x2=16.28 //y2=2.08
cc_89 ( N_GND_c_6_p N_RN_c_1478_n ) capacitor c=5.94159e-19 //x=17.76 //y=0 \
 //x2=19.98 //y2=2.08
cc_90 ( N_GND_c_8_p N_noxref_8_c_1730_n ) capacitor c=0.0143942f //x=25.16 \
 //y=0 //x2=23.565 //y2=3.33
cc_91 ( N_GND_c_68_p N_noxref_8_c_1730_n ) capacitor c=0.0016229f //x=22.4 \
 //y=0 //x2=23.565 //y2=3.33
cc_92 ( N_GND_c_92_p N_noxref_8_c_1730_n ) capacitor c=0.00189853f //x=23.665 \
 //y=0 //x2=23.565 //y2=3.33
cc_93 ( N_GND_c_7_p N_noxref_8_c_1730_n ) capacitor c=0.00820544f //x=22.57 \
 //y=0 //x2=23.565 //y2=3.33
cc_94 ( N_GND_c_8_p N_noxref_8_c_1734_n ) capacitor c=0.0017709f //x=25.16 \
 //y=0 //x2=21.945 //y2=3.33
cc_95 ( N_GND_c_7_p N_noxref_8_c_1735_n ) capacitor c=0.0455978f //x=22.57 \
 //y=0 //x2=21.745 //y2=1.665
cc_96 ( N_GND_c_7_p N_noxref_8_c_1736_n ) capacitor c=0.0179404f //x=22.57 \
 //y=0 //x2=23.68 //y2=2.08
cc_97 ( N_GND_c_92_p N_noxref_8_c_1737_n ) capacitor c=0.00135046f //x=23.665 \
 //y=0 //x2=23.485 //y2=0.865
cc_98 ( N_GND_M14_noxref_d N_noxref_8_c_1737_n ) capacitor c=0.00220047f \
 //x=23.56 //y=0.865 //x2=23.485 //y2=0.865
cc_99 ( N_GND_M14_noxref_d N_noxref_8_c_1739_n ) capacitor c=0.00255985f \
 //x=23.56 //y=0.865 //x2=23.485 //y2=1.21
cc_100 ( N_GND_c_7_p N_noxref_8_c_1740_n ) capacitor c=0.00189421f //x=22.57 \
 //y=0 //x2=23.485 //y2=1.52
cc_101 ( N_GND_c_7_p N_noxref_8_c_1741_n ) capacitor c=0.0106743f //x=22.57 \
 //y=0 //x2=23.485 //y2=1.915
cc_102 ( N_GND_M14_noxref_d N_noxref_8_c_1742_n ) capacitor c=0.0131326f \
 //x=23.56 //y=0.865 //x2=23.86 //y2=0.71
cc_103 ( N_GND_M14_noxref_d N_noxref_8_c_1743_n ) capacitor c=0.00193127f \
 //x=23.56 //y=0.865 //x2=23.86 //y2=1.365
cc_104 ( N_GND_c_2_p N_noxref_8_c_1744_n ) capacitor c=0.00130622f //x=25.16 \
 //y=0 //x2=24.015 //y2=0.865
cc_105 ( N_GND_M14_noxref_d N_noxref_8_c_1744_n ) capacitor c=0.00257848f \
 //x=23.56 //y=0.865 //x2=24.015 //y2=0.865
cc_106 ( N_GND_M14_noxref_d N_noxref_8_c_1746_n ) capacitor c=0.00255985f \
 //x=23.56 //y=0.865 //x2=24.015 //y2=1.21
cc_107 ( N_GND_c_7_p N_noxref_8_M13_noxref_d ) capacitor c=0.00591582f \
 //x=22.57 //y=0 //x2=21.155 //y2=0.915
cc_108 ( N_GND_c_8_p N_noxref_9_c_1886_n ) capacitor c=0.0122686f //x=25.16 \
 //y=0 //x2=11.355 //y2=4.07
cc_109 ( N_GND_c_8_p N_noxref_9_c_1887_n ) capacitor c=0.00158906f //x=25.16 \
 //y=0 //x2=1.225 //y2=4.07
cc_110 ( N_GND_c_8_p N_noxref_9_c_1888_n ) capacitor c=0.00837108f //x=25.16 \
 //y=0 //x2=24.305 //y2=4.07
cc_111 ( N_GND_c_1_p N_noxref_9_c_1889_n ) capacitor c=0.0180363f //x=0.37 \
 //y=0 //x2=1.11 //y2=2.08
cc_112 ( N_GND_c_4_p N_noxref_9_c_1890_n ) capacitor c=7.4738e-19 //x=9.62 \
 //y=0 //x2=11.47 //y2=2.08
cc_113 ( N_GND_c_5_p N_noxref_9_c_1890_n ) capacitor c=7.76678e-19 //x=12.95 \
 //y=0 //x2=11.47 //y2=2.08
cc_114 ( N_GND_c_6_p N_noxref_9_c_1892_n ) capacitor c=0.0430857f //x=17.76 \
 //y=0 //x2=16.935 //y2=1.665
cc_115 ( N_GND_c_2_p N_noxref_9_c_1893_n ) capacitor c=9.53263e-19 //x=25.16 \
 //y=0 //x2=24.42 //y2=2.08
cc_116 ( N_GND_c_7_p N_noxref_9_c_1893_n ) capacitor c=9.2064e-19 //x=22.57 \
 //y=0 //x2=24.42 //y2=2.08
cc_117 ( N_GND_c_117_p N_noxref_9_c_1895_n ) capacitor c=0.00132755f //x=0.99 \
 //y=0 //x2=0.81 //y2=0.875
cc_118 ( N_GND_M0_noxref_d N_noxref_9_c_1895_n ) capacitor c=0.00211996f \
 //x=0.885 //y=0.875 //x2=0.81 //y2=0.875
cc_119 ( N_GND_M0_noxref_d N_noxref_9_c_1897_n ) capacitor c=0.00255985f \
 //x=0.885 //y=0.875 //x2=0.81 //y2=1.22
cc_120 ( N_GND_c_1_p N_noxref_9_c_1898_n ) capacitor c=0.00295461f //x=0.37 \
 //y=0 //x2=0.81 //y2=1.53
cc_121 ( N_GND_c_1_p N_noxref_9_c_1899_n ) capacitor c=0.0134214f //x=0.37 \
 //y=0 //x2=0.81 //y2=1.915
cc_122 ( N_GND_M0_noxref_d N_noxref_9_c_1900_n ) capacitor c=0.0131341f \
 //x=0.885 //y=0.875 //x2=1.185 //y2=0.72
cc_123 ( N_GND_M0_noxref_d N_noxref_9_c_1901_n ) capacitor c=0.00193146f \
 //x=0.885 //y=0.875 //x2=1.185 //y2=1.375
cc_124 ( N_GND_c_9_p N_noxref_9_c_1902_n ) capacitor c=0.00129018f //x=4.64 \
 //y=0 //x2=1.34 //y2=0.875
cc_125 ( N_GND_M0_noxref_d N_noxref_9_c_1902_n ) capacitor c=0.00257848f \
 //x=0.885 //y=0.875 //x2=1.34 //y2=0.875
cc_126 ( N_GND_M0_noxref_d N_noxref_9_c_1904_n ) capacitor c=0.00255985f \
 //x=0.885 //y=0.875 //x2=1.34 //y2=1.22
cc_127 ( N_GND_c_6_p N_noxref_9_M10_noxref_d ) capacitor c=0.00591582f \
 //x=17.76 //y=0 //x2=16.345 //y2=0.915
cc_128 ( N_GND_c_8_p N_Q_c_2270_n ) capacitor c=0.0136955f //x=25.16 //y=0 \
 //x2=25.045 //y2=3.7
cc_129 ( N_GND_c_8_p N_Q_c_2271_n ) capacitor c=0.00154647f //x=25.16 //y=0 \
 //x2=21.205 //y2=3.7
cc_130 ( N_GND_c_7_p Q ) capacitor c=9.64732e-19 //x=22.57 //y=0 //x2=25.16 \
 //y2=2.22
cc_131 ( N_GND_c_7_p N_Q_c_2273_n ) capacitor c=0.00128267f //x=22.57 //y=0 \
 //x2=21.09 //y2=2.08
cc_132 ( N_GND_c_2_p N_Q_c_2274_n ) capacitor c=0.0468439f //x=25.16 //y=0 \
 //x2=25.075 //y2=1.655
cc_133 ( N_GND_c_2_p N_Q_M15_noxref_d ) capacitor c=0.00618259f //x=25.16 \
 //y=0 //x2=24.53 //y2=0.905
cc_134 ( N_GND_c_7_p N_Q_M15_noxref_d ) capacitor c=8.58106e-19 //x=22.57 \
 //y=0 //x2=24.53 //y2=0.905
cc_135 ( N_GND_M14_noxref_d N_Q_M15_noxref_d ) capacitor c=0.00143464f \
 //x=23.56 //y=0.865 //x2=24.53 //y2=0.905
cc_136 ( N_GND_c_8_p N_noxref_11_c_2414_n ) capacitor c=0.00618956f //x=25.16 \
 //y=0 //x2=1.475 //y2=1.59
cc_137 ( N_GND_c_117_p N_noxref_11_c_2414_n ) capacitor c=0.00110021f //x=0.99 \
 //y=0 //x2=1.475 //y2=1.59
cc_138 ( N_GND_c_9_p N_noxref_11_c_2414_n ) capacitor c=0.00179185f //x=4.64 \
 //y=0 //x2=1.475 //y2=1.59
cc_139 ( N_GND_M0_noxref_d N_noxref_11_c_2414_n ) capacitor c=0.00894656f \
 //x=0.885 //y=0.875 //x2=1.475 //y2=1.59
cc_140 ( N_GND_c_8_p N_noxref_11_c_2418_n ) capacitor c=0.00575184f //x=25.16 \
 //y=0 //x2=1.56 //y2=0.625
cc_141 ( N_GND_c_9_p N_noxref_11_c_2418_n ) capacitor c=0.0154025f //x=4.64 \
 //y=0 //x2=1.56 //y2=0.625
cc_142 ( N_GND_M0_noxref_d N_noxref_11_c_2418_n ) capacitor c=0.033954f \
 //x=0.885 //y=0.875 //x2=1.56 //y2=0.625
cc_143 ( N_GND_c_8_p N_noxref_11_c_2421_n ) capacitor c=0.0139021f //x=25.16 \
 //y=0 //x2=2.445 //y2=0.54
cc_144 ( N_GND_c_9_p N_noxref_11_c_2421_n ) capacitor c=0.0382183f //x=4.64 \
 //y=0 //x2=2.445 //y2=0.54
cc_145 ( N_GND_c_8_p N_noxref_11_M0_noxref_s ) capacitor c=0.0125336f \
 //x=25.16 //y=0 //x2=0.455 //y2=0.375
cc_146 ( N_GND_c_117_p N_noxref_11_M0_noxref_s ) capacitor c=0.0154025f \
 //x=0.99 //y=0 //x2=0.455 //y2=0.375
cc_147 ( N_GND_c_1_p N_noxref_11_M0_noxref_s ) capacitor c=0.0712607f //x=0.37 \
 //y=0 //x2=0.455 //y2=0.375
cc_148 ( N_GND_c_9_p N_noxref_11_M0_noxref_s ) capacitor c=0.0144848f //x=4.64 \
 //y=0 //x2=0.455 //y2=0.375
cc_149 ( N_GND_c_3_p N_noxref_11_M0_noxref_s ) capacitor c=3.31601e-19 \
 //x=4.81 //y=0 //x2=0.455 //y2=0.375
cc_150 ( N_GND_M0_noxref_d N_noxref_11_M0_noxref_s ) capacitor c=0.033718f \
 //x=0.885 //y=0.875 //x2=0.455 //y2=0.375
cc_151 ( N_GND_c_8_p N_noxref_12_c_2460_n ) capacitor c=0.00402784f //x=25.16 \
 //y=0 //x2=3.015 //y2=0.995
cc_152 ( N_GND_c_9_p N_noxref_12_c_2460_n ) capacitor c=0.00864993f //x=4.64 \
 //y=0 //x2=3.015 //y2=0.995
cc_153 ( N_GND_c_8_p N_noxref_12_c_2462_n ) capacitor c=0.00575184f //x=25.16 \
 //y=0 //x2=3.1 //y2=0.625
cc_154 ( N_GND_c_9_p N_noxref_12_c_2462_n ) capacitor c=0.0154025f //x=4.64 \
 //y=0 //x2=3.1 //y2=0.625
cc_155 ( N_GND_M0_noxref_d N_noxref_12_c_2462_n ) capacitor c=6.21394e-19 \
 //x=0.885 //y=0.875 //x2=3.1 //y2=0.625
cc_156 ( N_GND_c_8_p N_noxref_12_c_2465_n ) capacitor c=0.0118365f //x=25.16 \
 //y=0 //x2=3.985 //y2=0.54
cc_157 ( N_GND_c_9_p N_noxref_12_c_2465_n ) capacitor c=0.0393298f //x=4.64 \
 //y=0 //x2=3.985 //y2=0.54
cc_158 ( N_GND_c_8_p N_noxref_12_c_2467_n ) capacitor c=0.00287549f //x=25.16 \
 //y=0 //x2=4.07 //y2=0.625
cc_159 ( N_GND_c_9_p N_noxref_12_c_2467_n ) capacitor c=0.0156383f //x=4.64 \
 //y=0 //x2=4.07 //y2=0.625
cc_160 ( N_GND_c_3_p N_noxref_12_c_2467_n ) capacitor c=0.0404137f //x=4.81 \
 //y=0 //x2=4.07 //y2=0.625
cc_161 ( N_GND_M0_noxref_d N_noxref_12_M1_noxref_d ) capacitor c=0.00162435f \
 //x=0.885 //y=0.875 //x2=1.86 //y2=0.91
cc_162 ( N_GND_c_1_p N_noxref_12_M2_noxref_s ) capacitor c=8.16352e-19 \
 //x=0.37 //y=0 //x2=2.965 //y2=0.375
cc_163 ( N_GND_c_3_p N_noxref_12_M2_noxref_s ) capacitor c=0.00183204f \
 //x=4.81 //y=0 //x2=2.965 //y2=0.375
cc_164 ( N_GND_c_3_p N_D_c_2512_n ) capacitor c=8.54129e-19 //x=4.81 //y=0 \
 //x2=7.03 //y2=2.08
cc_165 ( N_GND_c_8_p N_noxref_14_c_2592_n ) capacitor c=0.00551193f //x=25.16 \
 //y=0 //x2=6.285 //y2=1.59
cc_166 ( N_GND_c_10_p N_noxref_14_c_2592_n ) capacitor c=0.00111576f //x=5.8 \
 //y=0 //x2=6.285 //y2=1.59
cc_167 ( N_GND_c_58_p N_noxref_14_c_2592_n ) capacitor c=0.0018074f //x=9.45 \
 //y=0 //x2=6.285 //y2=1.59
cc_168 ( N_GND_M3_noxref_d N_noxref_14_c_2592_n ) capacitor c=0.00887417f \
 //x=5.695 //y=0.875 //x2=6.285 //y2=1.59
cc_169 ( N_GND_c_8_p N_noxref_14_c_2596_n ) capacitor c=0.00287639f //x=25.16 \
 //y=0 //x2=6.37 //y2=0.625
cc_170 ( N_GND_c_58_p N_noxref_14_c_2596_n ) capacitor c=0.0157076f //x=9.45 \
 //y=0 //x2=6.37 //y2=0.625
cc_171 ( N_GND_M3_noxref_d N_noxref_14_c_2596_n ) capacitor c=0.033954f \
 //x=5.695 //y=0.875 //x2=6.37 //y2=0.625
cc_172 ( N_GND_c_8_p N_noxref_14_c_2599_n ) capacitor c=0.0117685f //x=25.16 \
 //y=0 //x2=7.255 //y2=0.54
cc_173 ( N_GND_c_58_p N_noxref_14_c_2599_n ) capacitor c=0.0388177f //x=9.45 \
 //y=0 //x2=7.255 //y2=0.54
cc_174 ( N_GND_c_8_p N_noxref_14_M3_noxref_s ) capacitor c=0.00575103f \
 //x=25.16 //y=0 //x2=5.265 //y2=0.375
cc_175 ( N_GND_c_10_p N_noxref_14_M3_noxref_s ) capacitor c=0.0157076f //x=5.8 \
 //y=0 //x2=5.265 //y2=0.375
cc_176 ( N_GND_c_58_p N_noxref_14_M3_noxref_s ) capacitor c=0.014729f //x=9.45 \
 //y=0 //x2=5.265 //y2=0.375
cc_177 ( N_GND_c_3_p N_noxref_14_M3_noxref_s ) capacitor c=0.0696963f //x=4.81 \
 //y=0 //x2=5.265 //y2=0.375
cc_178 ( N_GND_c_4_p N_noxref_14_M3_noxref_s ) capacitor c=3.31601e-19 \
 //x=9.62 //y=0 //x2=5.265 //y2=0.375
cc_179 ( N_GND_M3_noxref_d N_noxref_14_M3_noxref_s ) capacitor c=0.033718f \
 //x=5.695 //y=0.875 //x2=5.265 //y2=0.375
cc_180 ( N_GND_c_8_p N_noxref_15_c_2641_n ) capacitor c=0.00385233f //x=25.16 \
 //y=0 //x2=7.825 //y2=0.995
cc_181 ( N_GND_c_58_p N_noxref_15_c_2641_n ) capacitor c=0.00984144f //x=9.45 \
 //y=0 //x2=7.825 //y2=0.995
cc_182 ( N_GND_c_8_p N_noxref_15_c_2643_n ) capacitor c=0.00287639f //x=25.16 \
 //y=0 //x2=7.91 //y2=0.625