// File: DFFRNQNX1.spi.DFFRNQNX1.pxi
// Created: Tue Oct 15 15:46:14 2024
// 
simulator lang=spectre
x_PM_DFFRNQNX1\%GND ( GND N_GND_c_8_p N_GND_c_117_p N_GND_c_1_p N_GND_c_9_p \
 N_GND_c_10_p N_GND_c_58_p N_GND_c_17_p N_GND_c_24_p N_GND_c_32_p N_GND_c_39_p \
 N_GND_c_61_p N_GND_c_68_p N_GND_c_92_p N_GND_c_2_p N_GND_c_3_p N_GND_c_4_p \
 N_GND_c_5_p N_GND_c_6_p N_GND_c_7_p N_GND_M0_noxref_d N_GND_M3_noxref_d \
 N_GND_M6_noxref_d N_GND_M8_noxref_d N_GND_M11_noxref_d N_GND_M14_noxref_d )  \
 PM_DFFRNQNX1\%GND
x_PM_DFFRNQNX1\%VDD ( VDD N_VDD_c_301_p N_VDD_c_293_n N_VDD_c_405_p \
 N_VDD_c_396_p N_VDD_c_319_p N_VDD_c_375_p N_VDD_c_376_p N_VDD_c_302_p \
 N_VDD_c_303_p N_VDD_c_309_p N_VDD_c_313_p N_VDD_c_379_p N_VDD_c_317_p \
 N_VDD_c_345_p N_VDD_c_381_p N_VDD_c_382_p N_VDD_c_357_p N_VDD_c_400_p \
 N_VDD_c_460_p N_VDD_c_516_p N_VDD_c_517_p N_VDD_c_429_p N_VDD_c_464_p \
 N_VDD_c_477_p N_VDD_c_481_p N_VDD_c_520_p N_VDD_c_484_p N_VDD_c_560_p \
 N_VDD_c_294_n N_VDD_c_295_n N_VDD_c_296_n N_VDD_c_297_n N_VDD_c_298_n \
 N_VDD_c_299_n N_VDD_M16_noxref_s N_VDD_M17_noxref_d N_VDD_M19_noxref_d \
 N_VDD_M21_noxref_d N_VDD_M22_noxref_s N_VDD_M23_noxref_d N_VDD_M25_noxref_d \
 N_VDD_M27_noxref_d N_VDD_M28_noxref_s N_VDD_M29_noxref_d N_VDD_M31_noxref_d \
 N_VDD_M32_noxref_s N_VDD_M33_noxref_d N_VDD_M35_noxref_d N_VDD_M37_noxref_d \
 N_VDD_M38_noxref_s N_VDD_M39_noxref_d N_VDD_M41_noxref_d N_VDD_M43_noxref_d \
 N_VDD_M44_noxref_s N_VDD_M45_noxref_d N_VDD_M47_noxref_d )  PM_DFFRNQNX1\%VDD
x_PM_DFFRNQNX1\%noxref_3 ( N_noxref_3_c_616_n N_noxref_3_c_620_n \
 N_noxref_3_c_621_n N_noxref_3_c_719_p N_noxref_3_c_622_n N_noxref_3_c_637_n \
 N_noxref_3_c_641_n N_noxref_3_c_643_n N_noxref_3_c_647_n N_noxref_3_c_623_n \
 N_noxref_3_c_757_p N_noxref_3_c_651_n N_noxref_3_c_624_n N_noxref_3_c_836_p \
 N_noxref_3_c_767_p N_noxref_3_M2_noxref_g N_noxref_3_M6_noxref_g \
 N_noxref_3_M20_noxref_g N_noxref_3_M21_noxref_g N_noxref_3_M28_noxref_g \
 N_noxref_3_M29_noxref_g N_noxref_3_c_705_p N_noxref_3_c_706_p \
 N_noxref_3_c_707_p N_noxref_3_c_747_p N_noxref_3_c_727_p N_noxref_3_c_749_p \
 N_noxref_3_c_728_p N_noxref_3_c_625_n N_noxref_3_c_627_n N_noxref_3_c_628_n \
 N_noxref_3_c_629_n N_noxref_3_c_630_n N_noxref_3_c_631_n N_noxref_3_c_632_n \
 N_noxref_3_c_634_n N_noxref_3_c_700_p N_noxref_3_c_710_p N_noxref_3_c_695_p \
 N_noxref_3_c_663_n N_noxref_3_M5_noxref_d N_noxref_3_M22_noxref_d \
 N_noxref_3_M24_noxref_d N_noxref_3_M26_noxref_d )  PM_DFFRNQNX1\%noxref_3
x_PM_DFFRNQNX1\%noxref_4 ( N_noxref_4_c_862_n N_noxref_4_c_910_n \
 N_noxref_4_c_879_n N_noxref_4_c_883_n N_noxref_4_c_885_n N_noxref_4_c_863_n \
 N_noxref_4_c_951_p N_noxref_4_c_864_n N_noxref_4_c_865_n N_noxref_4_c_978_p \
 N_noxref_4_M8_noxref_g N_noxref_4_M32_noxref_g N_noxref_4_M33_noxref_g \
 N_noxref_4_c_866_n N_noxref_4_c_868_n N_noxref_4_c_869_n N_noxref_4_c_870_n \
 N_noxref_4_c_871_n N_noxref_4_c_872_n N_noxref_4_c_873_n N_noxref_4_c_875_n \
 N_noxref_4_c_927_p N_noxref_4_c_897_n N_noxref_4_M7_noxref_d \
 N_noxref_4_M28_noxref_d N_noxref_4_M30_noxref_d )  PM_DFFRNQNX1\%noxref_4
x_PM_DFFRNQNX1\%CLK ( N_CLK_c_1011_n N_CLK_c_1028_n CLK CLK CLK CLK CLK CLK \
 CLK CLK CLK N_CLK_c_1009_n N_CLK_c_1010_n N_CLK_M1_noxref_g N_CLK_M9_noxref_g \
 N_CLK_M18_noxref_g N_CLK_M19_noxref_g N_CLK_M34_noxref_g N_CLK_M35_noxref_g \
 N_CLK_c_1163_p N_CLK_c_1165_p N_CLK_c_1189_p N_CLK_c_1196_p N_CLK_c_1059_n \
 N_CLK_c_1060_n N_CLK_c_1061_n N_CLK_c_1062_n N_CLK_c_1065_n N_CLK_c_1082_n \
 N_CLK_c_1085_n N_CLK_c_1212_p N_CLK_c_1219_p N_CLK_c_1087_n N_CLK_c_1088_n \
 N_CLK_c_1089_n N_CLK_c_1090_n N_CLK_c_1134_p N_CLK_c_1066_n N_CLK_c_1092_n )  \
 PM_DFFRNQNX1\%CLK
x_PM_DFFRNQNX1\%noxref_6 ( N_noxref_6_c_1297_n N_noxref_6_c_1298_n \
 N_noxref_6_c_1224_n N_noxref_6_c_1305_n N_noxref_6_c_1249_n \
 N_noxref_6_c_1253_n N_noxref_6_c_1255_n N_noxref_6_c_1259_n \
 N_noxref_6_c_1225_n N_noxref_6_c_1312_n N_noxref_6_c_1263_n \
 N_noxref_6_c_1226_n N_noxref_6_c_1227_n N_noxref_6_c_1355_n \
 N_noxref_6_c_1321_n N_noxref_6_M3_noxref_g N_noxref_6_M11_noxref_g \
 N_noxref_6_M22_noxref_g N_noxref_6_M23_noxref_g N_noxref_6_M38_noxref_g \
 N_noxref_6_M39_noxref_g N_noxref_6_c_1228_n N_noxref_6_c_1230_n \
 N_noxref_6_c_1231_n N_noxref_6_c_1232_n N_noxref_6_c_1233_n \
 N_noxref_6_c_1234_n N_noxref_6_c_1235_n N_noxref_6_c_1237_n \
 N_noxref_6_c_1326_n N_noxref_6_c_1278_n N_noxref_6_c_1238_n \
 N_noxref_6_c_1240_n N_noxref_6_c_1241_n N_noxref_6_c_1242_n \
 N_noxref_6_c_1243_n N_noxref_6_c_1244_n N_noxref_6_c_1245_n \
 N_noxref_6_c_1247_n N_noxref_6_c_1373_p N_noxref_6_c_1280_n \
 N_noxref_6_M2_noxref_d N_noxref_6_M16_noxref_d N_noxref_6_M18_noxref_d \
 N_noxref_6_M20_noxref_d )  PM_DFFRNQNX1\%noxref_6
x_PM_DFFRNQNX1\%RN ( N_RN_c_1470_n N_RN_c_1478_n N_RN_c_1480_n N_RN_c_1484_n \
 RN RN RN RN RN RN RN RN RN RN RN RN RN RN N_RN_c_1485_n N_RN_c_1486_n \
 N_RN_c_1487_n N_RN_M5_noxref_g N_RN_M10_noxref_g N_RN_M12_noxref_g \
 N_RN_M26_noxref_g N_RN_M27_noxref_g N_RN_M36_noxref_g N_RN_M37_noxref_g \
 N_RN_M40_noxref_g N_RN_M41_noxref_g N_RN_c_1522_n N_RN_c_1523_n N_RN_c_1524_n \
 N_RN_c_1525_n N_RN_c_1526_n N_RN_c_1528_n N_RN_c_1529_n N_RN_c_1556_n \
 N_RN_c_1557_n N_RN_c_1558_n N_RN_c_1640_p N_RN_c_1623_p N_RN_c_1642_p \
 N_RN_c_1624_p N_RN_c_1584_n N_RN_c_1587_n N_RN_c_1727_p N_RN_c_1734_p \
 N_RN_c_1589_n N_RN_c_1590_n N_RN_c_1591_n N_RN_c_1592_n N_RN_c_1602_p \
 N_RN_c_1531_n N_RN_c_1532_n N_RN_c_1534_n N_RN_c_1560_n N_RN_c_1562_n \
 N_RN_c_1563_n N_RN_c_1594_n )  PM_DFFRNQNX1\%RN
x_PM_DFFRNQNX1\%QN ( N_QN_c_1739_n N_QN_c_1743_n QN QN QN QN QN QN QN QN QN QN \
 QN N_QN_c_1758_n N_QN_c_1762_n N_QN_c_1764_n N_QN_c_1768_n N_QN_c_1744_n \
 N_QN_c_1842_p N_QN_c_1745_n N_QN_c_1804_n N_QN_c_1848_p N_QN_M14_noxref_g \
 N_QN_M44_noxref_g N_QN_M45_noxref_g N_QN_c_1746_n N_QN_c_1748_n N_QN_c_1749_n \
 N_QN_c_1750_n N_QN_c_1751_n N_QN_c_1752_n N_QN_c_1753_n N_QN_c_1755_n \
 N_QN_c_1779_n N_QN_M13_noxref_d N_QN_M38_noxref_d N_QN_M40_noxref_d \
 N_QN_M42_noxref_d )  PM_DFFRNQNX1\%QN
x_PM_DFFRNQNX1\%noxref_9 ( N_noxref_9_c_1895_n N_noxref_9_c_1896_n \
 N_noxref_9_c_1922_n N_noxref_9_c_1998_n N_noxref_9_c_1897_n \
 N_noxref_9_c_1935_n N_noxref_9_c_1898_n N_noxref_9_c_2000_n \
 N_noxref_9_c_1899_n N_noxref_9_c_1943_n N_noxref_9_c_1947_n \
 N_noxref_9_c_1949_n N_noxref_9_c_1953_n N_noxref_9_c_1901_n \
 N_noxref_9_c_2144_n N_noxref_9_c_1957_n N_noxref_9_c_2175_n \
 N_noxref_9_c_1902_n N_noxref_9_c_2080_n N_noxref_9_c_2152_n \
 N_noxref_9_M0_noxref_g N_noxref_9_M7_noxref_g N_noxref_9_M15_noxref_g \
 N_noxref_9_M16_noxref_g N_noxref_9_M17_noxref_g N_noxref_9_M30_noxref_g \
 N_noxref_9_M31_noxref_g N_noxref_9_M46_noxref_g N_noxref_9_M47_noxref_g \
 N_noxref_9_c_1904_n N_noxref_9_c_1906_n N_noxref_9_c_1907_n \
 N_noxref_9_c_1908_n N_noxref_9_c_1909_n N_noxref_9_c_1910_n \
 N_noxref_9_c_1911_n N_noxref_9_c_1913_n N_noxref_9_c_2095_n \
 N_noxref_9_c_1974_n N_noxref_9_c_2009_n N_noxref_9_c_2012_n \
 N_noxref_9_c_2014_n N_noxref_9_c_2044_n N_noxref_9_c_2046_n \
 N_noxref_9_c_2047_n N_noxref_9_c_2017_n N_noxref_9_c_2018_n \
 N_noxref_9_c_2184_n N_noxref_9_c_2187_n N_noxref_9_c_2189_n \
 N_noxref_9_c_2200_p N_noxref_9_c_2224_p N_noxref_9_c_2210_p \
 N_noxref_9_c_2192_n N_noxref_9_c_2193_n N_noxref_9_c_2019_n \
 N_noxref_9_c_2053_n N_noxref_9_c_2021_n N_noxref_9_c_2194_n \
 N_noxref_9_c_2217_p N_noxref_9_c_2196_n N_noxref_9_M10_noxref_d \
 N_noxref_9_M32_noxref_d N_noxref_9_M34_noxref_d N_noxref_9_M36_noxref_d )  \
 PM_DFFRNQNX1\%noxref_9
x_PM_DFFRNQNX1\%noxref_10 ( N_noxref_10_c_2279_n N_noxref_10_c_2280_n \
 N_noxref_10_c_2281_n N_noxref_10_c_2290_n N_noxref_10_c_2294_n \
 N_noxref_10_c_2296_n N_noxref_10_c_2282_n N_noxref_10_c_2413_p \
 N_noxref_10_c_2283_n N_noxref_10_c_2392_n N_noxref_10_M13_noxref_g \
 N_noxref_10_M42_noxref_g N_noxref_10_M43_noxref_g N_noxref_10_c_2325_n \
 N_noxref_10_c_2326_n N_noxref_10_c_2327_n N_noxref_10_c_2358_n \
 N_noxref_10_c_2359_n N_noxref_10_c_2361_n N_noxref_10_c_2362_n \
 N_noxref_10_c_2328_n N_noxref_10_c_2331_n N_noxref_10_c_2332_n \
 N_noxref_10_M15_noxref_d N_noxref_10_M44_noxref_d N_noxref_10_M46_noxref_d )  \
 PM_DFFRNQNX1\%noxref_10
x_PM_DFFRNQNX1\%noxref_11 ( N_noxref_11_c_2448_n N_noxref_11_c_2423_n \
 N_noxref_11_c_2427_n N_noxref_11_c_2430_n N_noxref_11_c_2441_n \
 N_noxref_11_M0_noxref_s )  PM_DFFRNQNX1\%noxref_11
x_PM_DFFRNQNX1\%noxref_12 ( N_noxref_12_c_2470_n N_noxref_12_c_2472_n \
 N_noxref_12_c_2475_n N_noxref_12_c_2478_n N_noxref_12_c_2489_n \
 N_noxref_12_M1_noxref_d N_noxref_12_M2_noxref_s )  PM_DFFRNQNX1\%noxref_12
x_PM_DFFRNQNX1\%D ( D D N_D_c_2523_n N_D_M4_noxref_g N_D_M24_noxref_g \
 N_D_M25_noxref_g N_D_c_2552_n N_D_c_2555_n N_D_c_2591_p N_D_c_2598_p \
 N_D_c_2557_n N_D_c_2558_n N_D_c_2559_n N_D_c_2560_n N_D_c_2537_n N_D_c_2538_n \
 )  PM_DFFRNQNX1\%D
x_PM_DFFRNQNX1\%noxref_14 ( N_noxref_14_c_2619_n N_noxref_14_c_2603_n \
 N_noxref_14_c_2607_n N_noxref_14_c_2610_n N_noxref_14_c_2621_n \
 N_noxref_14_M3_noxref_s )  PM_DFFRNQNX1\%noxref_14
x_PM_DFFRNQNX1\%noxref_15 ( N_noxref_15_c_2653_n N_noxref_15_c_2655_n \
 N_noxref_15_c_2658_n N_noxref_15_c_2661_n N_noxref_15_c_2670_n \
 N_noxref_15_M4_noxref_d N_noxref_15_M5_noxref_s )  PM_DFFRNQNX1\%noxref_15
x_PM_DFFRNQNX1\%noxref_16 ( N_noxref_16_c_2726_n N_noxref_16_c_2707_n \
 N_noxref_16_c_2711_n N_noxref_16_c_2714_n N_noxref_16_c_2715_n \
 N_noxref_16_c_2718_n N_noxref_16_M6_noxref_s )  PM_DFFRNQNX1\%noxref_16
x_PM_DFFRNQNX1\%noxref_17 ( N_noxref_17_c_2775_n N_noxref_17_c_2759_n \
 N_noxref_17_c_2763_n N_noxref_17_c_2766_n N_noxref_17_c_2789_n \
 N_noxref_17_M8_noxref_s )  PM_DFFRNQNX1\%noxref_17
x_PM_DFFRNQNX1\%noxref_18 ( N_noxref_18_c_2809_n N_noxref_18_c_2811_n \
 N_noxref_18_c_2814_n N_noxref_18_c_2817_n N_noxref_18_c_2842_n \
 N_noxref_18_M9_noxref_d N_noxref_18_M10_noxref_s )  PM_DFFRNQNX1\%noxref_18
x_PM_DFFRNQNX1\%noxref_19 ( N_noxref_19_c_2879_n N_noxref_19_c_2863_n \
 N_noxref_19_c_2867_n N_noxref_19_c_2870_n N_noxref_19_c_2893_n \
 N_noxref_19_M11_noxref_s )  PM_DFFRNQNX1\%noxref_19
x_PM_DFFRNQNX1\%noxref_20 ( N_noxref_20_c_2915_n N_noxref_20_c_2917_n \
 N_noxref_20_c_2920_n N_noxref_20_c_2923_n N_noxref_20_c_2943_n \
 N_noxref_20_M12_noxref_d N_noxref_20_M13_noxref_s )  PM_DFFRNQNX1\%noxref_20
x_PM_DFFRNQNX1\%noxref_21 ( N_noxref_21_c_2984_n N_noxref_21_c_2967_n \
 N_noxref_21_c_2971_n N_noxref_21_c_2974_n N_noxref_21_c_2975_n \
 N_noxref_21_c_2977_n N_noxref_21_M14_noxref_s )  PM_DFFRNQNX1\%noxref_21
cc_1 ( N_GND_c_1_p N_VDD_c_293_n ) capacitor c=0.00989031f //x=0.74 //y=0 \
 //x2=0.74 //y2=7.4
cc_2 ( N_GND_c_2_p N_VDD_c_294_n ) capacitor c=0.00989031f //x=25.53 //y=0 \
 //x2=25.53 //y2=7.4
cc_3 ( N_GND_c_3_p N_VDD_c_295_n ) capacitor c=0.00500587f //x=4.81 //y=0 \
 //x2=4.81 //y2=7.4
cc_4 ( N_GND_c_4_p N_VDD_c_296_n ) capacitor c=0.00500587f //x=9.62 //y=0 \
 //x2=9.62 //y2=7.4
cc_5 ( N_GND_c_5_p N_VDD_c_297_n ) capacitor c=0.00500587f //x=12.95 //y=0 \
 //x2=12.95 //y2=7.4
cc_6 ( N_GND_c_6_p N_VDD_c_298_n ) capacitor c=0.00524516f //x=17.76 //y=0 \
 //x2=17.76 //y2=7.4
cc_7 ( N_GND_c_7_p N_VDD_c_299_n ) capacitor c=0.00500587f //x=22.57 //y=0 \
 //x2=22.57 //y2=7.4
cc_8 ( N_GND_c_8_p N_noxref_3_c_616_n ) capacitor c=0.0324991f //x=25.53 //y=0 \
 //x2=8.765 //y2=3.33
cc_9 ( N_GND_c_9_p N_noxref_3_c_616_n ) capacitor c=0.00174514f //x=4.64 //y=0 \
 //x2=8.765 //y2=3.33
cc_10 ( N_GND_c_10_p N_noxref_3_c_616_n ) capacitor c=0.00152503f //x=5.8 \
 //y=0 //x2=8.765 //y2=3.33
cc_11 ( N_GND_c_3_p N_noxref_3_c_616_n ) capacitor c=0.00820844f //x=4.81 \
 //y=0 //x2=8.765 //y2=3.33
cc_12 ( N_GND_c_8_p N_noxref_3_c_620_n ) capacitor c=0.00172266f //x=25.53 \
 //y=0 //x2=3.445 //y2=3.33
cc_13 ( N_GND_c_4_p N_noxref_3_c_621_n ) capacitor c=0.00582294f //x=9.62 \
 //y=0 //x2=10.615 //y2=3.33
cc_14 ( N_GND_c_3_p N_noxref_3_c_622_n ) capacitor c=9.53263e-19 //x=4.81 \
 //y=0 //x2=3.33 //y2=2.08
cc_15 ( N_GND_c_4_p N_noxref_3_c_623_n ) capacitor c=0.0432238f //x=9.62 //y=0 \
 //x2=8.795 //y2=1.665
cc_16 ( N_GND_c_4_p N_noxref_3_c_624_n ) capacitor c=0.0156446f //x=9.62 //y=0 \
 //x2=10.73 //y2=2.08
cc_17 ( N_GND_c_17_p N_noxref_3_c_625_n ) capacitor c=0.00135046f //x=10.715 \
 //y=0 //x2=10.535 //y2=0.865
cc_18 ( N_GND_M6_noxref_d N_noxref_3_c_625_n ) capacitor c=0.00220047f \
 //x=10.61 //y=0.865 //x2=10.535 //y2=0.865
cc_19 ( N_GND_M6_noxref_d N_noxref_3_c_627_n ) capacitor c=0.00255985f \
 //x=10.61 //y=0.865 //x2=10.535 //y2=1.21
cc_20 ( N_GND_c_4_p N_noxref_3_c_628_n ) capacitor c=0.00189421f //x=9.62 \
 //y=0 //x2=10.535 //y2=1.52
cc_21 ( N_GND_c_4_p N_noxref_3_c_629_n ) capacitor c=0.00992619f //x=9.62 \
 //y=0 //x2=10.535 //y2=1.915
cc_22 ( N_GND_M6_noxref_d N_noxref_3_c_630_n ) capacitor c=0.0131326f \
 //x=10.61 //y=0.865 //x2=10.91 //y2=0.71
cc_23 ( N_GND_M6_noxref_d N_noxref_3_c_631_n ) capacitor c=0.00193127f \
 //x=10.61 //y=0.865 //x2=10.91 //y2=1.365
cc_24 ( N_GND_c_24_p N_noxref_3_c_632_n ) capacitor c=0.00130622f //x=12.78 \
 //y=0 //x2=11.065 //y2=0.865
cc_25 ( N_GND_M6_noxref_d N_noxref_3_c_632_n ) capacitor c=0.00257848f \
 //x=10.61 //y=0.865 //x2=11.065 //y2=0.865
cc_26 ( N_GND_M6_noxref_d N_noxref_3_c_634_n ) capacitor c=0.00255985f \
 //x=10.61 //y=0.865 //x2=11.065 //y2=1.21
cc_27 ( N_GND_c_4_p N_noxref_3_M5_noxref_d ) capacitor c=0.00591582f //x=9.62 \
 //y=0 //x2=8.205 //y2=0.915
cc_28 ( N_GND_c_5_p N_noxref_4_c_862_n ) capacitor c=0.00582294f //x=12.95 \
 //y=0 //x2=13.945 //y2=3.33
cc_29 ( N_GND_c_5_p N_noxref_4_c_863_n ) capacitor c=0.0436242f //x=12.95 \
 //y=0 //x2=12.125 //y2=1.655
cc_30 ( N_GND_c_4_p N_noxref_4_c_864_n ) capacitor c=9.64732e-19 //x=9.62 \
 //y=0 //x2=12.21 //y2=3.33
cc_31 ( N_GND_c_5_p N_noxref_4_c_865_n ) capacitor c=0.0156442f //x=12.95 \
 //y=0 //x2=14.06 //y2=2.08
cc_32 ( N_GND_c_32_p N_noxref_4_c_866_n ) capacitor c=0.00132755f //x=13.94 \
 //y=0 //x2=13.76 //y2=0.875
cc_33 ( N_GND_M8_noxref_d N_noxref_4_c_866_n ) capacitor c=0.00211996f \
 //x=13.835 //y=0.875 //x2=13.76 //y2=0.875
cc_34 ( N_GND_M8_noxref_d N_noxref_4_c_868_n ) capacitor c=0.00255985f \
 //x=13.835 //y=0.875 //x2=13.76 //y2=1.22
cc_35 ( N_GND_c_5_p N_noxref_4_c_869_n ) capacitor c=0.00195164f //x=12.95 \
 //y=0 //x2=13.76 //y2=1.53
cc_36 ( N_GND_c_5_p N_noxref_4_c_870_n ) capacitor c=0.0110952f //x=12.95 \
 //y=0 //x2=13.76 //y2=1.915
cc_37 ( N_GND_M8_noxref_d N_noxref_4_c_871_n ) capacitor c=0.0131341f \
 //x=13.835 //y=0.875 //x2=14.135 //y2=0.72
cc_38 ( N_GND_M8_noxref_d N_noxref_4_c_872_n ) capacitor c=0.00193146f \
 //x=13.835 //y=0.875 //x2=14.135 //y2=1.375
cc_39 ( N_GND_c_39_p N_noxref_4_c_873_n ) capacitor c=0.00129018f //x=17.59 \
 //y=0 //x2=14.29 //y2=0.875
cc_40 ( N_GND_M8_noxref_d N_noxref_4_c_873_n ) capacitor c=0.00257848f \
 //x=13.835 //y=0.875 //x2=14.29 //y2=0.875
cc_41 ( N_GND_M8_noxref_d N_noxref_4_c_875_n ) capacitor c=0.00255985f \
 //x=13.835 //y=0.875 //x2=14.29 //y2=1.22
cc_42 ( N_GND_c_4_p N_noxref_4_M7_noxref_d ) capacitor c=8.58106e-19 //x=9.62 \
 //y=0 //x2=11.58 //y2=0.905
cc_43 ( N_GND_c_5_p N_noxref_4_M7_noxref_d ) capacitor c=0.00616547f //x=12.95 \
 //y=0 //x2=11.58 //y2=0.905
cc_44 ( N_GND_M6_noxref_d N_noxref_4_M7_noxref_d ) capacitor c=0.00143464f \
 //x=10.61 //y=0.865 //x2=11.58 //y2=0.905
cc_45 ( N_GND_c_1_p N_CLK_c_1009_n ) capacitor c=7.64246e-19 //x=0.74 //y=0 \
 //x2=2.22 //y2=2.08
cc_46 ( N_GND_c_5_p N_CLK_c_1010_n ) capacitor c=6.04789e-19 //x=12.95 //y=0 \
 //x2=15.17 //y2=2.08
cc_47 ( N_GND_c_6_p N_noxref_6_c_1224_n ) capacitor c=0.00390249f //x=17.76 \
 //y=0 //x2=18.755 //y2=3.7
cc_48 ( N_GND_c_3_p N_noxref_6_c_1225_n ) capacitor c=0.0459494f //x=4.81 \
 //y=0 //x2=3.985 //y2=1.665
cc_49 ( N_GND_c_3_p N_noxref_6_c_1226_n ) capacitor c=0.0178133f //x=4.81 \
 //y=0 //x2=5.92 //y2=2.08
cc_50 ( N_GND_c_6_p N_noxref_6_c_1227_n ) capacitor c=0.0155796f //x=17.76 \
 //y=0 //x2=18.87 //y2=2.08
cc_51 ( N_GND_c_10_p N_noxref_6_c_1228_n ) capacitor c=0.00132755f //x=5.8 \
 //y=0 //x2=5.62 //y2=0.875
cc_52 ( N_GND_M3_noxref_d N_noxref_6_c_1228_n ) capacitor c=0.00211996f \
 //x=5.695 //y=0.875 //x2=5.62 //y2=0.875
cc_53 ( N_GND_M3_noxref_d N_noxref_6_c_1230_n ) capacitor c=0.00255985f \
 //x=5.695 //y=0.875 //x2=5.62 //y2=1.22
cc_54 ( N_GND_c_3_p N_noxref_6_c_1231_n ) capacitor c=0.00204716f //x=4.81 \
 //y=0 //x2=5.62 //y2=1.53
cc_55 ( N_GND_c_3_p N_noxref_6_c_1232_n ) capacitor c=0.0118433f //x=4.81 \
 //y=0 //x2=5.62 //y2=1.915
cc_56 ( N_GND_M3_noxref_d N_noxref_6_c_1233_n ) capacitor c=0.0131341f \
 //x=5.695 //y=0.875 //x2=5.995 //y2=0.72
cc_57 ( N_GND_M3_noxref_d N_noxref_6_c_1234_n ) capacitor c=0.00193146f \
 //x=5.695 //y=0.875 //x2=5.995 //y2=1.375
cc_58 ( N_GND_c_58_p N_noxref_6_c_1235_n ) capacitor c=0.00129018f //x=9.45 \
 //y=0 //x2=6.15 //y2=0.875
cc_59 ( N_GND_M3_noxref_d N_noxref_6_c_1235_n ) capacitor c=0.00257848f \
 //x=5.695 //y=0.875 //x2=6.15 //y2=0.875
cc_60 ( N_GND_M3_noxref_d N_noxref_6_c_1237_n ) capacitor c=0.00255985f \
 //x=5.695 //y=0.875 //x2=6.15 //y2=1.22
cc_61 ( N_GND_c_61_p N_noxref_6_c_1238_n ) capacitor c=0.00132755f //x=18.75 \
 //y=0 //x2=18.57 //y2=0.875
cc_62 ( N_GND_M11_noxref_d N_noxref_6_c_1238_n ) capacitor c=0.00211996f \
 //x=18.645 //y=0.875 //x2=18.57 //y2=0.875
cc_63 ( N_GND_M11_noxref_d N_noxref_6_c_1240_n ) capacitor c=0.00255985f \
 //x=18.645 //y=0.875 //x2=18.57 //y2=1.22
cc_64 ( N_GND_c_6_p N_noxref_6_c_1241_n ) capacitor c=0.00204716f //x=17.76 \
 //y=0 //x2=18.57 //y2=1.53
cc_65 ( N_GND_c_6_p N_noxref_6_c_1242_n ) capacitor c=0.0110952f //x=17.76 \
 //y=0 //x2=18.57 //y2=1.915
cc_66 ( N_GND_M11_noxref_d N_noxref_6_c_1243_n ) capacitor c=0.0131341f \
 //x=18.645 //y=0.875 //x2=18.945 //y2=0.72
cc_67 ( N_GND_M11_noxref_d N_noxref_6_c_1244_n ) capacitor c=0.00193146f \
 //x=18.645 //y=0.875 //x2=18.945 //y2=1.375
cc_68 ( N_GND_c_68_p N_noxref_6_c_1245_n ) capacitor c=0.00129018f //x=22.4 \
 //y=0 //x2=19.1 //y2=0.875
cc_69 ( N_GND_M11_noxref_d N_noxref_6_c_1245_n ) capacitor c=0.00257848f \
 //x=18.645 //y=0.875 //x2=19.1 //y2=0.875
cc_70 ( N_GND_M11_noxref_d N_noxref_6_c_1247_n ) capacitor c=0.00255985f \
 //x=18.645 //y=0.875 //x2=19.1 //y2=1.22
cc_71 ( N_GND_c_3_p N_noxref_6_M2_noxref_d ) capacitor c=0.00591582f //x=4.81 \
 //y=0 //x2=3.395 //y2=0.915
cc_72 ( N_GND_c_8_p N_RN_c_1470_n ) capacitor c=0.0754427f //x=25.53 //y=0 \
 //x2=16.165 //y2=2.22
cc_73 ( N_GND_c_58_p N_RN_c_1470_n ) capacitor c=0.00318526f //x=9.45 //y=0 \
 //x2=16.165 //y2=2.22
cc_74 ( N_GND_c_17_p N_RN_c_1470_n ) capacitor c=0.00347653f //x=10.715 //y=0 \
 //x2=16.165 //y2=2.22
cc_75 ( N_GND_c_24_p N_RN_c_1470_n ) capacitor c=0.00411932f //x=12.78 //y=0 \
 //x2=16.165 //y2=2.22
cc_76 ( N_GND_c_32_p N_RN_c_1470_n ) capacitor c=0.00274252f //x=13.94 //y=0 \
 //x2=16.165 //y2=2.22
cc_77 ( N_GND_c_39_p N_RN_c_1470_n ) capacitor c=0.00111309f //x=17.59 //y=0 \
 //x2=16.165 //y2=2.22
cc_78 ( N_GND_c_4_p N_RN_c_1470_n ) capacitor c=0.0418918f //x=9.62 //y=0 \
 //x2=16.165 //y2=2.22
cc_79 ( N_GND_c_5_p N_RN_c_1470_n ) capacitor c=0.0418918f //x=12.95 //y=0 \
 //x2=16.165 //y2=2.22
cc_80 ( N_GND_c_8_p N_RN_c_1478_n ) capacitor c=0.00221055f //x=25.53 //y=0 \
 //x2=8.255 //y2=2.22
cc_81 ( N_GND_c_58_p N_RN_c_1478_n ) capacitor c=4.19033e-19 //x=9.45 //y=0 \
 //x2=8.255 //y2=2.22
cc_82 ( N_GND_c_8_p N_RN_c_1480_n ) capacitor c=0.0355717f //x=25.53 //y=0 \
 //x2=19.865 //y2=2.22
cc_83 ( N_GND_c_39_p N_RN_c_1480_n ) capacitor c=0.00318526f //x=17.59 //y=0 \
 //x2=19.865 //y2=2.22
cc_84 ( N_GND_c_61_p N_RN_c_1480_n ) capacitor c=0.00274252f //x=18.75 //y=0 \
 //x2=19.865 //y2=2.22
cc_85 ( N_GND_c_6_p N_RN_c_1480_n ) capacitor c=0.0430854f //x=17.76 //y=0 \
 //x2=19.865 //y2=2.22
cc_86 ( N_GND_c_8_p N_RN_c_1484_n ) capacitor c=0.00195247f //x=25.53 //y=0 \
 //x2=16.395 //y2=2.22
cc_87 ( N_GND_c_4_p N_RN_c_1485_n ) capacitor c=8.37259e-19 //x=9.62 //y=0 \
 //x2=8.14 //y2=2.08
cc_88 ( N_GND_c_6_p N_RN_c_1486_n ) capacitor c=8.37259e-19 //x=17.76 //y=0 \
 //x2=16.28 //y2=2.08
cc_89 ( N_GND_c_6_p N_RN_c_1487_n ) capacitor c=5.94159e-19 //x=17.76 //y=0 \
 //x2=19.98 //y2=2.08
cc_90 ( N_GND_c_8_p N_QN_c_1739_n ) capacitor c=0.0143872f //x=25.53 //y=0 \
 //x2=23.565 //y2=3.33
cc_91 ( N_GND_c_68_p N_QN_c_1739_n ) capacitor c=0.0016229f //x=22.4 //y=0 \
 //x2=23.565 //y2=3.33
cc_92 ( N_GND_c_92_p N_QN_c_1739_n ) capacitor c=0.00189853f //x=23.665 //y=0 \
 //x2=23.565 //y2=3.33
cc_93 ( N_GND_c_7_p N_QN_c_1739_n ) capacitor c=0.00820844f //x=22.57 //y=0 \
 //x2=23.565 //y2=3.33
cc_94 ( N_GND_c_8_p N_QN_c_1743_n ) capacitor c=0.0017709f //x=25.53 //y=0 \
 //x2=21.945 //y2=3.33
cc_95 ( N_GND_c_7_p N_QN_c_1744_n ) capacitor c=0.0455978f //x=22.57 //y=0 \
 //x2=21.745 //y2=1.665
cc_96 ( N_GND_c_7_p N_QN_c_1745_n ) capacitor c=0.0179404f //x=22.57 //y=0 \
 //x2=23.68 //y2=2.08
cc_97 ( N_GND_c_92_p N_QN_c_1746_n ) capacitor c=0.00135046f //x=23.665 //y=0 \
 //x2=23.485 //y2=0.865
cc_98 ( N_GND_M14_noxref_d N_QN_c_1746_n ) capacitor c=0.00220047f //x=23.56 \
 //y=0.865 //x2=23.485 //y2=0.865
cc_99 ( N_GND_M14_noxref_d N_QN_c_1748_n ) capacitor c=0.00255985f //x=23.56 \
 //y=0.865 //x2=23.485 //y2=1.21
cc_100 ( N_GND_c_7_p N_QN_c_1749_n ) capacitor c=0.00189421f //x=22.57 //y=0 \
 //x2=23.485 //y2=1.52
cc_101 ( N_GND_c_7_p N_QN_c_1750_n ) capacitor c=0.0106743f //x=22.57 //y=0 \
 //x2=23.485 //y2=1.915
cc_102 ( N_GND_M14_noxref_d N_QN_c_1751_n ) capacitor c=0.0131326f //x=23.56 \
 //y=0.865 //x2=23.86 //y2=0.71
cc_103 ( N_GND_M14_noxref_d N_QN_c_1752_n ) capacitor c=0.00193127f //x=23.56 \
 //y=0.865 //x2=23.86 //y2=1.365
cc_104 ( N_GND_c_2_p N_QN_c_1753_n ) capacitor c=0.00130622f //x=25.53 //y=0 \
 //x2=24.015 //y2=0.865
cc_105 ( N_GND_M14_noxref_d N_QN_c_1753_n ) capacitor c=0.00257848f //x=23.56 \
 //y=0.865 //x2=24.015 //y2=0.865
cc_106 ( N_GND_M14_noxref_d N_QN_c_1755_n ) capacitor c=0.00255985f //x=23.56 \
 //y=0.865 //x2=24.015 //y2=1.21
cc_107 ( N_GND_c_7_p N_QN_M13_noxref_d ) capacitor c=0.00591582f //x=22.57 \
 //y=0 //x2=21.155 //y2=0.915
cc_108 ( N_GND_c_8_p N_noxref_9_c_1895_n ) capacitor c=0.0122686f //x=25.53 \
 //y=0 //x2=11.355 //y2=4.07
cc_109 ( N_GND_c_8_p N_noxref_9_c_1896_n ) capacitor c=0.0015877f //x=25.53 \
 //y=0 //x2=1.225 //y2=4.07
cc_110 ( N_GND_c_8_p N_noxref_9_c_1897_n ) capacitor c=0.010852f //x=25.53 \
 //y=0 //x2=24.305 //y2=4.07
cc_111 ( N_GND_c_1_p N_noxref_9_c_1898_n ) capacitor c=0.0180363f //x=0.74 \
 //y=0 //x2=1.11 //y2=2.08
cc_112 ( N_GND_c_4_p N_noxref_9_c_1899_n ) capacitor c=7.4738e-19 //x=9.62 \
 //y=0 //x2=11.47 //y2=2.08
cc_113 ( N_GND_c_5_p N_noxref_9_c_1899_n ) capacitor c=7.76678e-19 //x=12.95 \
 //y=0 //x2=11.47 //y2=2.08
cc_114 ( N_GND_c_6_p N_noxref_9_c_1901_n ) capacitor c=0.0430857f //x=17.76 \
 //y=0 //x2=16.935 //y2=1.665
cc_115 ( N_GND_c_2_p N_noxref_9_c_1902_n ) capacitor c=9.53263e-19 //x=25.53 \
 //y=0 //x2=24.42 //y2=2.08
cc_116 ( N_GND_c_7_p N_noxref_9_c_1902_n ) capacitor c=9.2064e-19 //x=22.57 \
 //y=0 //x2=24.42 //y2=2.08
cc_117 ( N_GND_c_117_p N_noxref_9_c_1904_n ) capacitor c=0.00132755f //x=0.99 \
 //y=0 //x2=0.81 //y2=0.875
cc_118 ( N_GND_M0_noxref_d N_noxref_9_c_1904_n ) capacitor c=0.00211996f \
 //x=0.885 //y=0.875 //x2=0.81 //y2=0.875
cc_119 ( N_GND_M0_noxref_d N_noxref_9_c_1906_n ) capacitor c=0.00255985f \
 //x=0.885 //y=0.875 //x2=0.81 //y2=1.22
cc_120 ( N_GND_c_1_p N_noxref_9_c_1907_n ) capacitor c=0.00295461f //x=0.74 \
 //y=0 //x2=0.81 //y2=1.53
cc_121 ( N_GND_c_1_p N_noxref_9_c_1908_n ) capacitor c=0.0134214f //x=0.74 \
 //y=0 //x2=0.81 //y2=1.915
cc_122 ( N_GND_M0_noxref_d N_noxref_9_c_1909_n ) capacitor c=0.0131341f \
 //x=0.885 //y=0.875 //x2=1.185 //y2=0.72
cc_123 ( N_GND_M0_noxref_d N_noxref_9_c_1910_n ) capacitor c=0.00193146f \
 //x=0.885 //y=0.875 //x2=1.185 //y2=1.375
cc_124 ( N_GND_c_9_p N_noxref_9_c_1911_n ) capacitor c=0.00129018f //x=4.64 \
 //y=0 //x2=1.34 //y2=0.875
cc_125 ( N_GND_M0_noxref_d N_noxref_9_c_1911_n ) capacitor c=0.00257848f \
 //x=0.885 //y=0.875 //x2=1.34 //y2=0.875
cc_126 ( N_GND_M0_noxref_d N_noxref_9_c_1913_n ) capacitor c=0.00255985f \
 //x=0.885 //y=0.875 //x2=1.34 //y2=1.22
cc_127 ( N_GND_c_6_p N_noxref_9_M10_noxref_d ) capacitor c=0.00591582f \
 //x=17.76 //y=0 //x2=16.345 //y2=0.915
cc_128 ( N_GND_c_8_p N_noxref_10_c_2279_n ) capacitor c=0.0185866f //x=25.53 \
 //y=0 //x2=25.045 //y2=3.7
cc_129 ( N_GND_c_8_p N_noxref_10_c_2280_n ) capacitor c=0.00154647f //x=25.53 \
 //y=0 //x2=21.205 //y2=3.7
cc_130 ( N_GND_c_7_p N_noxref_10_c_2281_n ) capacitor c=0.00128267f //x=22.57 \
 //y=0 //x2=21.09 //y2=2.08
cc_131 ( N_GND_c_2_p N_noxref_10_c_2282_n ) capacitor c=0.0468439f //x=25.53 \
 //y=0 //x2=25.075 //y2=1.655
cc_132 ( N_GND_c_7_p N_noxref_10_c_2283_n ) capacitor c=9.64732e-19 //x=22.57 \
 //y=0 //x2=25.16 //y2=3.7
cc_133 ( N_GND_c_2_p N_noxref_10_M15_noxref_d ) capacitor c=0.00618259f \
 //x=25.53 //y=0 //x2=24.53 //y2=0.905
cc_134 ( N_GND_c_7_p N_noxref_10_M15_noxref_d ) capacitor c=8.58106e-19 \
 //x=22.57 //y=0 //x2=24.53 //y2=0.905
cc_135 ( N_GND_M14_noxref_d N_noxref_10_M15_noxref_d ) capacitor c=0.00143464f \
 //x=23.56 //y=0.865 //x2=24.53 //y2=0.905
cc_136 ( N_GND_c_8_p N_noxref_11_c_2423_n ) capacitor c=0.00618812f //x=25.53 \
 //y=0 //x2=1.475 //y2=1.59
cc_137 ( N_GND_c_117_p N_noxref_11_c_2423_n ) capacitor c=0.00110021f //x=0.99 \
 //y=0 //x2=1.475 //y2=1.59
cc_138 ( N_GND_c_9_p N_noxref_11_c_2423_n ) capacitor c=0.00179185f //x=4.64 \
 //y=0 //x2=1.475 //y2=1.59
cc_139 ( N_GND_M0_noxref_d N_noxref_11_c_2423_n ) capacitor c=0.00894788f \
 //x=0.885 //y=0.875 //x2=1.475 //y2=1.59
cc_140 ( N_GND_c_8_p N_noxref_11_c_2427_n ) capacitor c=0.00575184f //x=25.53 \
 //y=0 //x2=1.56 //y2=0.625
cc_141 ( N_GND_c_9_p N_noxref_11_c_2427_n ) capacitor c=0.0140218f //x=4.64 \
 //y=0 //x2=1.56 //y2=0.625
cc_142 ( N_GND_M0_noxref_d N_noxref_11_c_2427_n ) capacitor c=0.033954f \
 //x=0.885 //y=0.875 //x2=1.56 //y2=0.625
cc_143 ( N_GND_c_8_p N_noxref_11_c_2430_n ) capacitor c=0.0139021f //x=25.53 \
 //y=0 //x2=2.445 //y2=0.54
cc_144 ( N_GND_c_9_p N_noxref_11_c_2430_n ) capacitor c=0.0356078f //x=4.64 \
 //y=0 //x2=2.445 //y2=0.54
cc_145 ( N_GND_c_2_p N_noxref_11_c_2430_n ) capacitor c=0.00177266f //x=25.53 \
 //y=0 //x2=2.445 //y2=0.54
cc_146 ( N_GND_c_8_p N_noxref_11_M0_noxref_s ) capacitor c=0.0125336f \
 //x=25.53 //y=0 //x2=0.455 //y2=0.375
cc_147 ( N_GND_c_117_p N_noxref_11_M0_noxref_s ) capacitor c=0.0140218f \
 //x=0.99 //y=0 //x2=0.455 //y2=0.375
cc_148 ( N_GND_c_1_p N_noxref_11_M0_noxref_s ) capacitor c=0.0712607f //x=0.74 \
 //y=0 //x2=0.455 //y2=0.375
cc_149 ( N_GND_c_9_p N_noxref_11_M0_noxref_s ) capacitor c=0.0131422f //x=4.64 \
 //y=0 //x2=0.455 //y2=0.375
cc_150 ( N_GND_c_3_p N_noxref_11_M0_noxref_s ) capacitor c=3.31601e-19 \
 //x=4.81 //y=0 //x2=0.455 //y2=0.375
cc_151 ( N_GND_M0_noxref_d N_noxref_11_M0_noxref_s ) capacitor c=0.033718f \
 //x=0.885 //y=0.875 //x2=0.455 //y2=0.375
cc_152 ( N_GND_c_8_p N_noxref_12_c_2470_n ) capacitor c=0.00402784f //x=25.53 \
 //y=0 //x2=3.015 //y2=0.995
cc_153 ( N_GND_c_9_p N_noxref_12_c_2470_n ) capacitor c=0.00829979f //x=4.64 \
 //y=0 //x2=3.015 //y2=0.995
cc_154 ( N_GND_c_8_p N_noxref_12_c_2472_n ) capacitor c=0.00575184f //x=25.53 \
 //y=0 //x2=3.1 //y2=0.625
cc_155 ( N_GND_c_9_p N_noxref_12_c_2472_n ) capacitor c=0.0140218f //x=4.64 \
 //y=0 //x2=3.1 //y2=0.625
cc_156 ( N_GND_M0_noxref_d N_noxref_12_c_2472_n ) capacitor c=6.21394e-19 \
 //x=0.885 //y=0.875 //x2=3.1 //y2=0.625
cc_157 ( N_GND_c_8_p N_noxref_12_c_2475_n ) capacitor c=0.0118365f //x=25.53 \
 //y=0 //x2=3.985 //y2=0.54
cc_158 ( N_GND_c_9_p N_noxref_12_c_2475_n ) capacitor c=0.0365413f //x=4.64 \
 //y=0 //x2=3.985 //y2=0.54
cc_159 ( N_GND_c_2_p N_noxref_12_c_2475_n ) capacitor c=0.00189358f //x=25.53 \
 //y=0 //x2=3.985 //y2=0.54
cc_160 ( N_GND_c_8_p N_noxref_12_c_2478_n ) capacitor c=0.00287549f //x=25.53 \
 //y=0 //x2=4.07 //y2=0.625
cc_161 ( N_GND_c_9_p N_noxref_12_c_2478_n ) capacitor c=0.0142658f //x=4.64 \
 //y=0 //x2=4.07 //y2=0.625
cc_162 ( N_GND_c_3_p N_noxref_12_c_2478_n ) capacitor c=0.0404137f //x=4.81 \
 //y=0 //x2=4.07 //y2=0.625
cc_163 ( N_GND_M0_noxref_d N_noxref_12_M1_noxref_d ) capacitor c=0.00162435f \
 //x=0.885 //y=0.875 //x2=1.86 //y2=0.91
cc_164 ( N_GND_c_1_p N_noxref_12_M2_noxref_s ) capacitor c=8.16352e-19 \
 //x=0.74 //y=0 //x2=2.965 //y2=0.375
cc_165 ( N_GND_c_3_p N_noxref_12_M2_noxref_s ) capacitor c=0.00183204f \
 //x=4.81 //y=0 //x2=2.965 //y2=0.375
cc_166 ( N_GND_c_3_p N_D_c_2523_n ) capacitor c=8.54129e-19 //x=4.81 //y=0 \
 //x2=7.03 //y2=2.08
cc_167 ( N_GND_c_8_p N_noxref_14_c_2603_n ) capacitor c=0.00551063f //x=25.53 \
 //y=0 //x2=6.285 //y2=1.59
cc_168 ( N_GND_c_10_p N_noxref_14_c_2603_n ) capacitor c=0.00111576f //x=5.8 \
 //y=0 //x2=6.285 //y2=1.59
cc_169 ( N_GND_c_58_p N_noxref_14_c_2603_n ) capacitor c=0.0018074f //x=9.45 \
 //y=0 //x2=6.285 //y2=1.59
cc_170 ( N_GND_M3_noxref_d N_noxref_14_c_2603_n ) capacitor c=0.00887549f \
 //x=5.695 //y=0.875 //x2=6.285 //y2=1.59
cc_171 ( N_GND_c_8_p N_noxref_14_c_2607_n ) capacitor c=0.00287639f //x=25.53 \
 //y=0 //x2=6.37 //y2=0.625
cc_172 ( N_GND_c_58_p N_noxref_14_c_2607_n ) capacitor c=0.014327f //x=9.45 \
 //y=0 //x2=6.37 //y2=0.625
cc_173 ( N_GND_M3_noxref_d N_noxref_14_c_2607_n ) capacitor c=0.033954f \
 //x=5.695 //y=0.875 //x2=6.37 //y2=0.625
cc_174 ( N_GND_c_8_p N_noxref_14_c_2610_n ) capacitor c=0.0117685f //x=25.53 \
 //y=0 //x2=7.255 //y2=0.54
cc_175 ( N_GND_c_58_p N_noxref_14_c_2610_n ) capacitor c=0.0362073f //x=9.45 \
 //y=0 //x2=7.255 //y2=0.54
cc_176 ( N_GND_c_2_p N_noxref_14_c_2610_n ) capacitor c=0.00177266f //x=25.53 \
 //y=0 //x2=7.255 //y2=0.54
cc_177 ( N_GND_c_8_p N_noxref_14_M3_noxref_s ) capacitor c=0.00575103f \
 //x=25.53 //y=0 //x2=5.265 //y2=0.375
cc_178 ( N_GND_c_10_p N_noxref_14_M3_noxref_s ) capacitor c=0.014327f //x=5.8 \
 //y=0 //x2=5.265 //y2=0.375
cc_179 ( N_GND_c_58_p N_noxref_14_M3_noxref_s ) capacitor c=0.0133864f \
 //x=9.45 //y=0 //x2=5.265 //y2=0.375
cc_180 ( N_GND_c_3_p N_noxref_14_M3_noxref_s ) capacitor c=0.0696963f //x=4.81 \
 //y=0 //x2=5.265 //y2=0.375
cc_181 ( N_GND_c_4_p N_noxref_14_M3_noxref_s ) capacitor c=3.31601e-19 \
 //x=9.62 //y=0 //x2=5.265 //y2=0.375
cc_182 ( N_GND_M3_noxref_d N_noxref_14_M3_noxref_s ) capacitor c=0.033718f \