// File: DFFRNQNX1.spi.pex
// Created: Tue Oct 15 15:46:14 2024
// Program "Calibre xRC"
// Version "v2023.2_27.15"
// Nominal Temperature: 30C
// Circuit Temperature: 30C
// 
simulator lang=spectre
subckt PM_DFFRNQNX1\%GND ( 1 47 51 54 59 69 77 87 95 103 109 119 125 135 146 \
 150 152 154 157 160 163 164 165 166 167 168 )
c292 ( 168 0 ) capacitor c=0.0208017f //x=23.56 //y=0.865
c293 ( 167 0 ) capacitor c=0.0225954f //x=18.645 //y=0.875
c294 ( 166 0 ) capacitor c=0.0226075f //x=13.835 //y=0.875
c295 ( 165 0 ) capacitor c=0.0207407f //x=10.61 //y=0.865
c296 ( 164 0 ) capacitor c=0.0226571f //x=5.695 //y=0.875
c297 ( 163 0 ) capacitor c=0.022675f //x=0.885 //y=0.875
c298 ( 162 0 ) capacitor c=0.00440095f //x=23.68 //y=0
c299 ( 160 0 ) capacitor c=0.109815f //x=22.57 //y=0
c300 ( 159 0 ) capacitor c=0.00440144f //x=18.87 //y=0
c301 ( 157 0 ) capacitor c=0.107954f //x=17.76 //y=0
c302 ( 156 0 ) capacitor c=0.00440144f //x=14.06 //y=0
c303 ( 154 0 ) capacitor c=0.10465f //x=12.95 //y=0
c304 ( 153 0 ) capacitor c=0.00440095f //x=10.8 //y=0
c305 ( 152 0 ) capacitor c=0.108705f //x=9.62 //y=0
c306 ( 151 0 ) capacitor c=0.00440144f //x=5.885 //y=0
c307 ( 150 0 ) capacitor c=0.10869f //x=4.81 //y=0
c308 ( 149 0 ) capacitor c=0.00440144f //x=1.075 //y=0
c309 ( 146 0 ) capacitor c=0.259877f //x=25.53 //y=0
c310 ( 135 0 ) capacitor c=0.0389288f //x=23.665 //y=0
c311 ( 125 0 ) capacitor c=0.131607f //x=22.4 //y=0
c312 ( 119 0 ) capacitor c=0.0339325f //x=18.75 //y=0
c313 ( 109 0 ) capacitor c=0.133561f //x=17.59 //y=0
c314 ( 103 0 ) capacitor c=0.0339325f //x=13.94 //y=0
c315 ( 95 0 ) capacitor c=0.0718026f //x=12.78 //y=0
c316 ( 87 0 ) capacitor c=0.0388888f //x=10.715 //y=0
c317 ( 77 0 ) capacitor c=0.133699f //x=9.45 //y=0
c318 ( 69 0 ) capacitor c=0.0339738f //x=5.8 //y=0
c319 ( 59 0 ) capacitor c=0.131745f //x=4.64 //y=0
c320 ( 54 0 ) capacitor c=0.178285f //x=0.74 //y=0
c321 ( 51 0 ) capacitor c=0.0367385f //x=0.99 //y=0
c322 ( 47 0 ) capacitor c=0.816614f //x=25.53 //y=0
r323 (  144 146 ) resistor r=26.5322 //w=0.357 //l=0.74 //layer=li \
 //thickness=0.1 //x=24.79 //y=0 //x2=25.53 //y2=0
r324 (  142 162 ) resistor r=2.94794 //w=0.34 //l=0.085 //layer=li \
 //thickness=0.1 //x=23.835 //y=0 //x2=23.75 //y2=0
r325 (  142 144 ) resistor r=34.2409 //w=0.357 //l=0.955 //layer=li \
 //thickness=0.1 //x=23.835 //y=0 //x2=24.79 //y2=0
r326 (  137 162 ) resistor r=4.11603 //w=0.68 //l=0.17 //layer=li \
 //thickness=0.1 //x=23.75 //y=0.17 //x2=23.75 //y2=0
r327 (  137 168 ) resistor r=53.7326 //w=0.187 //l=0.785 //layer=li \
 //thickness=0.1 //x=23.75 //y=0.17 //x2=23.75 //y2=0.955
r328 (  136 160 ) resistor r=5.4201 //w=0.34 //l=0.17 //layer=li \
 //thickness=0.1 //x=22.74 //y=0 //x2=22.57 //y2=0
r329 (  135 162 ) resistor r=2.94794 //w=0.34 //l=0.085 //layer=li \
 //thickness=0.1 //x=23.665 //y=0 //x2=23.75 //y2=0
r330 (  135 136 ) resistor r=33.1653 //w=0.357 //l=0.925 //layer=li \
 //thickness=0.1 //x=23.665 //y=0 //x2=22.74 //y2=0
r331 (  130 132 ) resistor r=39.7983 //w=0.357 //l=1.11 //layer=li \
 //thickness=0.1 //x=21.09 //y=0 //x2=22.2 //y2=0
r332 (  128 130 ) resistor r=39.7983 //w=0.357 //l=1.11 //layer=li \
 //thickness=0.1 //x=19.98 //y=0 //x2=21.09 //y2=0
r333 (  126 159 ) resistor r=2.94794 //w=0.34 //l=0.085 //layer=li \
 //thickness=0.1 //x=18.92 //y=0 //x2=18.835 //y2=0
r334 (  126 128 ) resistor r=38.0056 //w=0.357 //l=1.06 //layer=li \
 //thickness=0.1 //x=18.92 //y=0 //x2=19.98 //y2=0
r335 (  125 160 ) resistor r=5.4201 //w=0.34 //l=0.17 //layer=li \
 //thickness=0.1 //x=22.4 //y=0 //x2=22.57 //y2=0
r336 (  125 132 ) resistor r=7.17087 //w=0.357 //l=0.2 //layer=li \
 //thickness=0.1 //x=22.4 //y=0 //x2=22.2 //y2=0
r337 (  121 159 ) resistor r=4.11603 //w=0.68 //l=0.17 //layer=li \
 //thickness=0.1 //x=18.835 //y=0.17 //x2=18.835 //y2=0
r338 (  121 167 ) resistor r=54.4171 //w=0.187 //l=0.795 //layer=li \
 //thickness=0.1 //x=18.835 //y=0.17 //x2=18.835 //y2=0.965
r339 (  120 157 ) resistor r=5.4201 //w=0.34 //l=0.17 //layer=li \
 //thickness=0.1 //x=17.93 //y=0 //x2=17.76 //y2=0
r340 (  119 159 ) resistor r=2.94794 //w=0.34 //l=0.085 //layer=li \
 //thickness=0.1 //x=18.75 //y=0 //x2=18.835 //y2=0
r341 (  119 120 ) resistor r=29.4006 //w=0.357 //l=0.82 //layer=li \
 //thickness=0.1 //x=18.75 //y=0 //x2=17.93 //y2=0
r342 (  114 116 ) resistor r=39.7983 //w=0.357 //l=1.11 //layer=li \
 //thickness=0.1 //x=16.28 //y=0 //x2=17.39 //y2=0
r343 (  112 114 ) resistor r=39.7983 //w=0.357 //l=1.11 //layer=li \
 //thickness=0.1 //x=15.17 //y=0 //x2=16.28 //y2=0
r344 (  110 156 ) resistor r=2.94794 //w=0.34 //l=0.085 //layer=li \
 //thickness=0.1 //x=14.11 //y=0 //x2=14.025 //y2=0
r345 (  110 112 ) resistor r=38.0056 //w=0.357 //l=1.06 //layer=li \
 //thickness=0.1 //x=14.11 //y=0 //x2=15.17 //y2=0
r346 (  109 157 ) resistor r=5.4201 //w=0.34 //l=0.17 //layer=li \
 //thickness=0.1 //x=17.59 //y=0 //x2=17.76 //y2=0
r347 (  109 116 ) resistor r=7.17087 //w=0.357 //l=0.2 //layer=li \
 //thickness=0.1 //x=17.59 //y=0 //x2=17.39 //y2=0
r348 (  105 156 ) resistor r=4.11603 //w=0.68 //l=0.17 //layer=li \
 //thickness=0.1 //x=14.025 //y=0.17 //x2=14.025 //y2=0
r349 (  105 166 ) resistor r=54.4171 //w=0.187 //l=0.795 //layer=li \
 //thickness=0.1 //x=14.025 //y=0.17 //x2=14.025 //y2=0.965
r350 (  104 154 ) resistor r=5.4201 //w=0.34 //l=0.17 //layer=li \
 //thickness=0.1 //x=13.12 //y=0 //x2=12.95 //y2=0
r351 (  103 156 ) resistor r=2.94794 //w=0.34 //l=0.085 //layer=li \
 //thickness=0.1 //x=13.94 //y=0 //x2=14.025 //y2=0
r352 (  103 104 ) resistor r=29.4006 //w=0.357 //l=0.82 //layer=li \
 //thickness=0.1 //x=13.94 //y=0 //x2=13.12 //y2=0
r353 (  98 100 ) resistor r=39.7983 //w=0.357 //l=1.11 //layer=li \
 //thickness=0.1 //x=11.47 //y=0 //x2=12.58 //y2=0
r354 (  96 153 ) resistor r=2.94794 //w=0.34 //l=0.085 //layer=li \
 //thickness=0.1 //x=10.885 //y=0 //x2=10.8 //y2=0
r355 (  96 98 ) resistor r=20.9748 //w=0.357 //l=0.585 //layer=li \
 //thickness=0.1 //x=10.885 //y=0 //x2=11.47 //y2=0
r356 (  95 154 ) resistor r=5.4201 //w=0.34 //l=0.17 //layer=li \
 //thickness=0.1 //x=12.78 //y=0 //x2=12.95 //y2=0
r357 (  95 100 ) resistor r=7.17087 //w=0.357 //l=0.2 //layer=li \
 //thickness=0.1 //x=12.78 //y=0 //x2=12.58 //y2=0
r358 (  91 153 ) resistor r=4.11603 //w=0.68 //l=0.17 //layer=li \
 //thickness=0.1 //x=10.8 //y=0.17 //x2=10.8 //y2=0
r359 (  91 165 ) resistor r=53.7326 //w=0.187 //l=0.785 //layer=li \
 //thickness=0.1 //x=10.8 //y=0.17 //x2=10.8 //y2=0.955
r360 (  88 152 ) resistor r=5.4201 //w=0.34 //l=0.17 //layer=li \
 //thickness=0.1 //x=9.79 //y=0 //x2=9.62 //y2=0
r361 (  88 90 ) resistor r=20.437 //w=0.357 //l=0.57 //layer=li \
 //thickness=0.1 //x=9.79 //y=0 //x2=10.36 //y2=0
r362 (  87 153 ) resistor r=2.94794 //w=0.34 //l=0.085 //layer=li \
 //thickness=0.1 //x=10.715 //y=0 //x2=10.8 //y2=0
r363 (  87 90 ) resistor r=12.7283 //w=0.357 //l=0.355 //layer=li \
 //thickness=0.1 //x=10.715 //y=0 //x2=10.36 //y2=0
r364 (  82 84 ) resistor r=39.7983 //w=0.357 //l=1.11 //layer=li \
 //thickness=0.1 //x=7.77 //y=0 //x2=8.88 //y2=0
r365 (  80 82 ) resistor r=39.7983 //w=0.357 //l=1.11 //layer=li \
 //thickness=0.1 //x=6.66 //y=0 //x2=7.77 //y2=0
r366 (  78 151 ) resistor r=2.94794 //w=0.34 //l=0.085 //layer=li \
 //thickness=0.1 //x=5.97 //y=0 //x2=5.885 //y2=0
r367 (  78 80 ) resistor r=24.7395 //w=0.357 //l=0.69 //layer=li \
 //thickness=0.1 //x=5.97 //y=0 //x2=6.66 //y2=0
r368 (  77 152 ) resistor r=5.4201 //w=0.34 //l=0.17 //layer=li \
 //thickness=0.1 //x=9.45 //y=0 //x2=9.62 //y2=0
r369 (  77 84 ) resistor r=20.437 //w=0.357 //l=0.57 //layer=li \
 //thickness=0.1 //x=9.45 //y=0 //x2=8.88 //y2=0
r370 (  73 151 ) resistor r=4.11603 //w=0.68 //l=0.17 //layer=li \
 //thickness=0.1 //x=5.885 //y=0.17 //x2=5.885 //y2=0
r371 (  73 164 ) resistor r=54.4171 //w=0.187 //l=0.795 //layer=li \
 //thickness=0.1 //x=5.885 //y=0.17 //x2=5.885 //y2=0.965
r372 (  70 150 ) resistor r=5.4201 //w=0.34 //l=0.17 //layer=li \
 //thickness=0.1 //x=4.98 //y=0 //x2=4.81 //y2=0
r373 (  70 72 ) resistor r=20.437 //w=0.357 //l=0.57 //layer=li \
 //thickness=0.1 //x=4.98 //y=0 //x2=5.55 //y2=0
r374 (  69 151 ) resistor r=2.94794 //w=0.34 //l=0.085 //layer=li \
 //thickness=0.1 //x=5.8 //y=0 //x2=5.885 //y2=0
r375 (  69 72 ) resistor r=8.96359 //w=0.357 //l=0.25 //layer=li \
 //thickness=0.1 //x=5.8 //y=0 //x2=5.55 //y2=0
r376 (  64 66 ) resistor r=39.7983 //w=0.357 //l=1.11 //layer=li \
 //thickness=0.1 //x=2.96 //y=0 //x2=4.07 //y2=0
r377 (  62 64 ) resistor r=39.7983 //w=0.357 //l=1.11 //layer=li \
 //thickness=0.1 //x=1.85 //y=0 //x2=2.96 //y2=0
r378 (  60 149 ) resistor r=2.94794 //w=0.34 //l=0.085 //layer=li \
 //thickness=0.1 //x=1.16 //y=0 //x2=1.075 //y2=0
r379 (  60 62 ) resistor r=24.7395 //w=0.357 //l=0.69 //layer=li \
 //thickness=0.1 //x=1.16 //y=0 //x2=1.85 //y2=0
r380 (  59 150 ) resistor r=5.4201 //w=0.34 //l=0.17 //layer=li \
 //thickness=0.1 //x=4.64 //y=0 //x2=4.81 //y2=0
r381 (  59 66 ) resistor r=20.437 //w=0.357 //l=0.57 //layer=li \
 //thickness=0.1 //x=4.64 //y=0 //x2=4.07 //y2=0
r382 (  55 149 ) resistor r=4.11603 //w=0.68 //l=0.17 //layer=li \
 //thickness=0.1 //x=1.075 //y=0.17 //x2=1.075 //y2=0
r383 (  55 163 ) resistor r=54.4171 //w=0.187 //l=0.795 //layer=li \
 //thickness=0.1 //x=1.075 //y=0.17 //x2=1.075 //y2=0.965
r384 (  51 149 ) resistor r=2.94794 //w=0.34 //l=0.085 //layer=li \
 //thickness=0.1 //x=0.99 //y=0 //x2=1.075 //y2=0
r385 (  51 54 ) resistor r=8.96359 //w=0.357 //l=0.25 //layer=li \
 //thickness=0.1 //x=0.99 //y=0 //x2=0.74 //y2=0
r386 (  47 146 ) resistor r=9.3 //w=0.17 //l=0.17 //layer=mcon //count=1 \
 //x=25.53 //y=0 //x2=25.53 //y2=0
r387 (  45 144 ) resistor r=3.1 //w=0.17 //l=0.51 //layer=mcon //count=3 \
 //x=24.79 //y=0 //x2=24.79 //y2=0
r388 (  45 47 ) resistor r=0.307309 //w=0.301 //l=0.74 //layer=m1 \
 //thickness=0.36 //x=24.79 //y=0 //x2=25.53 //y2=0
r389 (  43 162 ) resistor r=3.1 //w=0.17 //l=0.51 //layer=mcon //count=3 \
 //x=23.68 //y=0 //x2=23.68 //y2=0
r390 (  43 45 ) resistor r=0.460963 //w=0.301 //l=1.11 //layer=m1 \
 //thickness=0.36 //x=23.68 //y=0 //x2=24.79 //y2=0
r391 (  41 132 ) resistor r=3.1 //w=0.17 //l=0.51 //layer=mcon //count=3 \
 //x=22.2 //y=0 //x2=22.2 //y2=0
r392 (  41 43 ) resistor r=0.614618 //w=0.301 //l=1.48 //layer=m1 \
 //thickness=0.36 //x=22.2 //y=0 //x2=23.68 //y2=0
r393 (  39 130 ) resistor r=3.1 //w=0.17 //l=0.51 //layer=mcon //count=3 \
 //x=21.09 //y=0 //x2=21.09 //y2=0
r394 (  39 41 ) resistor r=0.460963 //w=0.301 //l=1.11 //layer=m1 \
 //thickness=0.36 //x=21.09 //y=0 //x2=22.2 //y2=0
r395 (  37 128 ) resistor r=3.1 //w=0.17 //l=0.51 //layer=mcon //count=3 \
 //x=19.98 //y=0 //x2=19.98 //y2=0
r396 (  37 39 ) resistor r=0.460963 //w=0.301 //l=1.11 //layer=m1 \
 //thickness=0.36 //x=19.98 //y=0 //x2=21.09 //y2=0
r397 (  35 159 ) resistor r=3.1 //w=0.17 //l=0.51 //layer=mcon //count=3 \
 //x=18.87 //y=0 //x2=18.87 //y2=0
r398 (  35 37 ) resistor r=0.460963 //w=0.301 //l=1.11 //layer=m1 \
 //thickness=0.36 //x=18.87 //y=0 //x2=19.98 //y2=0
r399 (  33 116 ) resistor r=3.1 //w=0.17 //l=0.51 //layer=mcon //count=3 \
 //x=17.39 //y=0 //x2=17.39 //y2=0
r400 (  33 35 ) resistor r=0.614618 //w=0.301 //l=1.48 //layer=m1 \
 //thickness=0.36 //x=17.39 //y=0 //x2=18.87 //y2=0
r401 (  31 114 ) resistor r=3.1 //w=0.17 //l=0.51 //layer=mcon //count=3 \
 //x=16.28 //y=0 //x2=16.28 //y2=0
r402 (  31 33 ) resistor r=0.460963 //w=0.301 //l=1.11 //layer=m1 \
 //thickness=0.36 //x=16.28 //y=0 //x2=17.39 //y2=0
r403 (  29 112 ) resistor r=3.1 //w=0.17 //l=0.51 //layer=mcon //count=3 \
 //x=15.17 //y=0 //x2=15.17 //y2=0
r404 (  29 31 ) resistor r=0.460963 //w=0.301 //l=1.11 //layer=m1 \
 //thickness=0.36 //x=15.17 //y=0 //x2=16.28 //y2=0
r405 (  27 156 ) resistor r=3.1 //w=0.17 //l=0.51 //layer=mcon //count=3 \
 //x=14.06 //y=0 //x2=14.06 //y2=0
r406 (  27 29 ) resistor r=0.460963 //w=0.301 //l=1.11 //layer=m1 \
 //thickness=0.36 //x=14.06 //y=0 //x2=15.17 //y2=0
r407 (  24 100 ) resistor r=3.1 //w=0.17 //l=0.51 //layer=mcon //count=3 \
 //x=12.58 //y=0 //x2=12.58 //y2=0
r408 (  22 98 ) resistor r=3.1 //w=0.17 //l=0.51 //layer=mcon //count=3 \
 //x=11.47 //y=0 //x2=11.47 //y2=0
r409 (  22 24 ) resistor r=0.460963 //w=0.301 //l=1.11 //layer=m1 \
 //thickness=0.36 //x=11.47 //y=0 //x2=12.58 //y2=0
r410 (  20 90 ) resistor r=3.1 //w=0.17 //l=0.51 //layer=mcon //count=3 \
 //x=10.36 //y=0 //x2=10.36 //y2=0
r411 (  20 22 ) resistor r=0.460963 //w=0.301 //l=1.11 //layer=m1 \
 //thickness=0.36 //x=10.36 //y=0 //x2=11.47 //y2=0
r412 (  18 84 ) resistor r=3.1 //w=0.17 //l=0.51 //layer=mcon //count=3 \
 //x=8.88 //y=0 //x2=8.88 //y2=0
r413 (  18 20 ) resistor r=0.614618 //w=0.301 //l=1.48 //layer=m1 \
 //thickness=0.36 //x=8.88 //y=0 //x2=10.36 //y2=0
r414 (  16 82 ) resistor r=3.1 //w=0.17 //l=0.51 //layer=mcon //count=3 \
 //x=7.77 //y=0 //x2=7.77 //y2=0
r415 (  16 18 ) resistor r=0.460963 //w=0.301 //l=1.11 //layer=m1 \
 //thickness=0.36 //x=7.77 //y=0 //x2=8.88 //y2=0
r416 (  14 80 ) resistor r=3.1 //w=0.17 //l=0.51 //layer=mcon //count=3 \
 //x=6.66 //y=0 //x2=6.66 //y2=0
r417 (  14 16 ) resistor r=0.460963 //w=0.301 //l=1.11 //layer=m1 \
 //thickness=0.36 //x=6.66 //y=0 //x2=7.77 //y2=0
r418 (  12 72 ) resistor r=3.1 //w=0.17 //l=0.51 //layer=mcon //count=3 \
 //x=5.55 //y=0 //x2=5.55 //y2=0
r419 (  12 14 ) resistor r=0.460963 //w=0.301 //l=1.11 //layer=m1 \
 //thickness=0.36 //x=5.55 //y=0 //x2=6.66 //y2=0
r420 (  10 66 ) resistor r=3.1 //w=0.17 //l=0.51 //layer=mcon //count=3 \
 //x=4.07 //y=0 //x2=4.07 //y2=0
r421 (  10 12 ) resistor r=0.614618 //w=0.301 //l=1.48 //layer=m1 \
 //thickness=0.36 //x=4.07 //y=0 //x2=5.55 //y2=0
r422 (  8 64 ) resistor r=3.1 //w=0.17 //l=0.51 //layer=mcon //count=3 \
 //x=2.96 //y=0 //x2=2.96 //y2=0
r423 (  8 10 ) resistor r=0.460963 //w=0.301 //l=1.11 //layer=m1 \
 //thickness=0.36 //x=2.96 //y=0 //x2=4.07 //y2=0
r424 (  6 62 ) resistor r=3.1 //w=0.17 //l=0.51 //layer=mcon //count=3 \
 //x=1.85 //y=0 //x2=1.85 //y2=0
r425 (  6 8 ) resistor r=0.460963 //w=0.301 //l=1.11 //layer=m1 \
 //thickness=0.36 //x=1.85 //y=0 //x2=2.96 //y2=0
r426 (  3 54 ) resistor r=3.1 //w=0.17 //l=0.51 //layer=mcon //count=3 \
 //x=0.74 //y=0 //x2=0.74 //y2=0
r427 (  3 6 ) resistor r=0.460963 //w=0.301 //l=1.11 //layer=m1 \
 //thickness=0.36 //x=0.74 //y=0 //x2=1.85 //y2=0
r428 (  1 27 ) resistor r=0.460963 //w=0.301 //l=1.11 //layer=m1 \
 //thickness=0.36 //x=12.95 //y=0 //x2=14.06 //y2=0
r429 (  1 24 ) resistor r=0.153654 //w=0.301 //l=0.37 //layer=m1 \
 //thickness=0.36 //x=12.95 //y=0 //x2=12.58 //y2=0
ends PM_DFFRNQNX1\%GND

subckt PM_DFFRNQNX1\%VDD ( 1 47 54 61 71 79 89 95 105 115 123 133 139 147 155 \
 165 171 179 187 197 207 213 221 229 239 249 255 263 273 286 293 298 303 309 \
 315 319 320 321 322 323 324 325 326 327 328 329 330 331 332 333 334 335 336 \
 337 338 339 340 )
c323 ( 340 0 ) capacitor c=0.0382077f //x=24.975 //y=5.02
c324 ( 339 0 ) capacitor c=0.0240874f //x=24.095 //y=5.02
c325 ( 338 0 ) capacitor c=0.0495444f //x=23.225 //y=5.02
c326 ( 337 0 ) capacitor c=0.0453059f //x=21.345 //y=5.02
c327 ( 336 0 ) capacitor c=0.02424f //x=20.465 //y=5.02
c328 ( 335 0 ) capacitor c=0.02424f //x=19.585 //y=5.02
c329 ( 334 0 ) capacitor c=0.0531793f //x=18.715 //y=5.02
c330 ( 333 0 ) capacitor c=0.0453059f //x=16.535 //y=5.02
c331 ( 332 0 ) capacitor c=0.02424f //x=15.655 //y=5.02
c332 ( 331 0 ) capacitor c=0.024152f //x=14.775 //y=5.02
c333 ( 330 0 ) capacitor c=0.0531894f //x=13.905 //y=5.02
c334 ( 329 0 ) capacitor c=0.0380679f //x=12.025 //y=5.02
c335 ( 328 0 ) capacitor c=0.024008f //x=11.145 //y=5.02
c336 ( 327 0 ) capacitor c=0.049209f //x=10.275 //y=5.02
c337 ( 326 0 ) capacitor c=0.0452179f //x=8.395 //y=5.02
c338 ( 325 0 ) capacitor c=0.024152f //x=7.515 //y=5.02
c339 ( 324 0 ) capacitor c=0.024152f //x=6.635 //y=5.02
c340 ( 323 0 ) capacitor c=0.053132f //x=5.765 //y=5.02
c341 ( 322 0 ) capacitor c=0.0452179f //x=3.585 //y=5.02
c342 ( 321 0 ) capacitor c=0.024152f //x=2.705 //y=5.02
c343 ( 320 0 ) capacitor c=0.02424f //x=1.825 //y=5.02
c344 ( 319 0 ) capacitor c=0.0531407f //x=0.955 //y=5.02
c345 ( 318 0 ) capacitor c=0.00591168f //x=25.12 //y=7.4
c346 ( 317 0 ) capacitor c=0.00591168f //x=24.24 //y=7.4
c347 ( 316 0 ) capacitor c=0.00591168f //x=23.36 //y=7.4
c348 ( 315 0 ) capacitor c=0.136751f //x=22.57 //y=7.4
c349 ( 314 0 ) capacitor c=0.00591168f //x=21.49 //y=7.4
c350 ( 313 0 ) capacitor c=0.00591168f //x=20.61 //y=7.4
c351 ( 312 0 ) capacitor c=0.00591168f //x=19.73 //y=7.4
c352 ( 311 0 ) capacitor c=0.00591168f //x=18.87 //y=7.4
c353 ( 309 0 ) capacitor c=0.15714f //x=17.76 //y=7.4
c354 ( 308 0 ) capacitor c=0.00591168f //x=16.68 //y=7.4
c355 ( 307 0 ) capacitor c=0.00591168f //x=15.8 //y=7.4
c356 ( 306 0 ) capacitor c=0.00591168f //x=14.92 //y=7.4
c357 ( 305 0 ) capacitor c=0.00591168f //x=14.06 //y=7.4
c358 ( 303 0 ) capacitor c=0.135038f //x=12.95 //y=7.4
c359 ( 302 0 ) capacitor c=0.00591168f //x=12.17 //y=7.4
c360 ( 301 0 ) capacitor c=0.00591168f //x=11.29 //y=7.4
c361 ( 300 0 ) capacitor c=0.00591168f //x=10.36 //y=7.4
c362 ( 298 0 ) capacitor c=0.134558f //x=9.62 //y=7.4
c363 ( 297 0 ) capacitor c=0.00591168f //x=8.54 //y=7.4
c364 ( 296 0 ) capacitor c=0.00591168f //x=7.66 //y=7.4
c365 ( 295 0 ) capacitor c=0.00591168f //x=6.78 //y=7.4
c366 ( 294 0 ) capacitor c=0.00591168f //x=5.9 //y=7.4
c367 ( 293 0 ) capacitor c=0.15519f //x=4.81 //y=7.4
c368 ( 292 0 ) capacitor c=0.00591168f //x=3.73 //y=7.4
c369 ( 291 0 ) capacitor c=0.00591168f //x=2.85 //y=7.4
c370 ( 290 0 ) capacitor c=0.00591168f //x=1.97 //y=7.4
c371 ( 289 0 ) capacitor c=0.00591168f //x=1.09 //y=7.4
c372 ( 286 0 ) capacitor c=0.237727f //x=25.53 //y=7.4
c373 ( 273 0 ) capacitor c=0.0284327f //x=25.035 //y=7.4
c374 ( 263 0 ) capacitor c=0.0288633f //x=24.155 //y=7.4
c375 ( 255 0 ) capacitor c=0.0240981f //x=23.275 //y=7.4
c376 ( 249 0 ) capacitor c=0.0395236f //x=22.4 //y=7.4
c377 ( 239 0 ) capacitor c=0.0288769f //x=21.405 //y=7.4
c378 ( 229 0 ) capacitor c=0.0287757f //x=20.525 //y=7.4
c379 ( 221 0 ) capacitor c=0.028511f //x=19.645 //y=7.4
c380 ( 213 0 ) capacitor c=0.0383672f //x=18.765 //y=7.4
c381 ( 207 0 ) capacitor c=0.0395206f //x=17.59 //y=7.4
c382 ( 197 0 ) capacitor c=0.0288769f //x=16.595 //y=7.4
c383 ( 187 0 ) capacitor c=0.0287624f //x=15.715 //y=7.4
c384 ( 179 0 ) capacitor c=0.0284966f //x=14.835 //y=7.4
c385 ( 171 0 ) capacitor c=0.0383672f //x=13.955 //y=7.4
c386 ( 165 0 ) capacitor c=0.0236224f //x=12.78 //y=7.4
c387 ( 155 0 ) capacitor c=0.0288359f //x=12.085 //y=7.4
c388 ( 147 0 ) capacitor c=0.0288369f //x=11.205 //y=7.4
c389 ( 139 0 ) capacitor c=0.0240981f //x=10.325 //y=7.4
c390 ( 133 0 ) capacitor c=0.0394667f //x=9.45 //y=7.4
c391 ( 123 0 ) capacitor c=0.0288488f //x=8.455 //y=7.4
c392 ( 115 0 ) capacitor c=0.0287514f //x=7.575 //y=7.4
c393 ( 105 0 ) capacitor c=0.0284966f //x=6.695 //y=7.4
c394 ( 95 0 ) capacitor c=0.0383672f //x=5.815 //y=7.4
c395 ( 89 0 ) capacitor c=0.0394667f //x=4.64 //y=7.4
c396 ( 79 0 ) capacitor c=0.0288488f //x=3.645 //y=7.4
c397 ( 71 0 ) capacitor c=0.0287505f //x=2.765 //y=7.4
c398 ( 61 0 ) capacitor c=0.028511f //x=1.885 //y=7.4
c399 ( 54 0 ) capacitor c=0.234426f //x=0.74 //y=7.4
c400 ( 51 0 ) capacitor c=0.0452081f //x=1.005 //y=7.4
c401 ( 47 0 ) capacitor c=0.899931f //x=25.53 //y=7.4
r402 (  284 318 ) resistor r=2.94794 //w=0.34 //l=0.085 //layer=li \
 //thickness=0.1 //x=25.205 //y=7.4 //x2=25.12 //y2=7.4
r403 (  284 286 ) resistor r=11.6527 //w=0.357 //l=0.325 //layer=li \
 //thickness=0.1 //x=25.205 //y=7.4 //x2=25.53 //y2=7.4
r404 (  277 318 ) resistor r=4.11603 //w=0.68 //l=0.17 //layer=li \
 //thickness=0.1 //x=25.12 //y=7.23 //x2=25.12 //y2=7.4
r405 (  277 340 ) resistor r=33.1979 //w=0.187 //l=0.485 //layer=li \
 //thickness=0.1 //x=25.12 //y=7.23 //x2=25.12 //y2=6.745
r406 (  274 317 ) resistor r=2.94794 //w=0.34 //l=0.085 //layer=li \
 //thickness=0.1 //x=24.325 //y=7.4 //x2=24.24 //y2=7.4
r407 (  274 276 ) resistor r=16.6723 //w=0.357 //l=0.465 //layer=li \
 //thickness=0.1 //x=24.325 //y=7.4 //x2=24.79 //y2=7.4
r408 (  273 318 ) resistor r=2.94794 //w=0.34 //l=0.085 //layer=li \
 //thickness=0.1 //x=25.035 //y=7.4 //x2=25.12 //y2=7.4
r409 (  273 276 ) resistor r=8.78431 //w=0.357 //l=0.245 //layer=li \
 //thickness=0.1 //x=25.035 //y=7.4 //x2=24.79 //y2=7.4
r410 (  267 317 ) resistor r=4.11603 //w=0.68 //l=0.17 //layer=li \
 //thickness=0.1 //x=24.24 //y=7.23 //x2=24.24 //y2=7.4
r411 (  267 339 ) resistor r=33.1979 //w=0.187 //l=0.485 //layer=li \
 //thickness=0.1 //x=24.24 //y=7.23 //x2=24.24 //y2=6.745
r412 (  264 316 ) resistor r=2.94794 //w=0.34 //l=0.085 //layer=li \
 //thickness=0.1 //x=23.445 //y=7.4 //x2=23.36 //y2=7.4
r413 (  264 266 ) resistor r=8.42577 //w=0.357 //l=0.235 //layer=li \
 //thickness=0.1 //x=23.445 //y=7.4 //x2=23.68 //y2=7.4
r414 (  263 317 ) resistor r=2.94794 //w=0.34 //l=0.085 //layer=li \
 //thickness=0.1 //x=24.155 //y=7.4 //x2=24.24 //y2=7.4
r415 (  263 266 ) resistor r=17.0308 //w=0.357 //l=0.475 //layer=li \
 //thickness=0.1 //x=24.155 //y=7.4 //x2=23.68 //y2=7.4
r416 (  257 316 ) resistor r=4.11603 //w=0.68 //l=0.17 //layer=li \
 //thickness=0.1 //x=23.36 //y=7.23 //x2=23.36 //y2=7.4
r417 (  257 338 ) resistor r=56.4706 //w=0.187 //l=0.825 //layer=li \
 //thickness=0.1 //x=23.36 //y=7.23 //x2=23.36 //y2=6.405
r418 (  256 315 ) resistor r=5.4201 //w=0.34 //l=0.17 //layer=li \
 //thickness=0.1 //x=22.74 //y=7.4 //x2=22.57 //y2=7.4
r419 (  255 316 ) resistor r=2.94794 //w=0.34 //l=0.085 //layer=li \
 //thickness=0.1 //x=23.275 //y=7.4 //x2=23.36 //y2=7.4
r420 (  255 256 ) resistor r=19.1821 //w=0.357 //l=0.535 //layer=li \
 //thickness=0.1 //x=23.275 //y=7.4 //x2=22.74 //y2=7.4
r421 (  250 314 ) resistor r=2.94794 //w=0.34 //l=0.085 //layer=li \
 //thickness=0.1 //x=21.575 //y=7.4 //x2=21.49 //y2=7.4
r422 (  250 252 ) resistor r=22.409 //w=0.357 //l=0.625 //layer=li \
 //thickness=0.1 //x=21.575 //y=7.4 //x2=22.2 //y2=7.4
r423 (  249 315 ) resistor r=5.4201 //w=0.34 //l=0.17 //layer=li \
 //thickness=0.1 //x=22.4 //y=7.4 //x2=22.57 //y2=7.4
r424 (  249 252 ) resistor r=7.17087 //w=0.357 //l=0.2 //layer=li \
 //thickness=0.1 //x=22.4 //y=7.4 //x2=22.2 //y2=7.4
r425 (  243 314 ) resistor r=4.11603 //w=0.68 //l=0.17 //layer=li \
 //thickness=0.1 //x=21.49 //y=7.23 //x2=21.49 //y2=7.4
r426 (  243 337 ) resistor r=33.1979 //w=0.187 //l=0.485 //layer=li \
 //thickness=0.1 //x=21.49 //y=7.23 //x2=21.49 //y2=6.745
r427 (  240 313 ) resistor r=2.94794 //w=0.34 //l=0.085 //layer=li \
 //thickness=0.1 //x=20.695 //y=7.4 //x2=20.61 //y2=7.4
r428 (  240 242 ) resistor r=14.1625 //w=0.357 //l=0.395 //layer=li \
 //thickness=0.1 //x=20.695 //y=7.4 //x2=21.09 //y2=7.4
r429 (  239 314 ) resistor r=2.94794 //w=0.34 //l=0.085 //layer=li \
 //thickness=0.1 //x=21.405 //y=7.4 //x2=21.49 //y2=7.4
r430 (  239 242 ) resistor r=11.2941 //w=0.357 //l=0.315 //layer=li \
 //thickness=0.1 //x=21.405 //y=7.4 //x2=21.09 //y2=7.4
r431 (  233 313 ) resistor r=4.11603 //w=0.68 //l=0.17 //layer=li \
 //thickness=0.1 //x=20.61 //y=7.23 //x2=20.61 //y2=7.4
r432 (  233 336 ) resistor r=33.1979 //w=0.187 //l=0.485 //layer=li \
 //thickness=0.1 //x=20.61 //y=7.23 //x2=20.61 //y2=6.745
r433 (  230 312 ) resistor r=2.94794 //w=0.34 //l=0.085 //layer=li \
 //thickness=0.1 //x=19.815 //y=7.4 //x2=19.73 //y2=7.4
r434 (  230 232 ) resistor r=5.91597 //w=0.357 //l=0.165 //layer=li \
 //thickness=0.1 //x=19.815 //y=7.4 //x2=19.98 //y2=7.4
r435 (  229 313 ) resistor r=2.94794 //w=0.34 //l=0.085 //layer=li \
 //thickness=0.1 //x=20.525 //y=7.4 //x2=20.61 //y2=7.4
r436 (  229 232 ) resistor r=19.5406 //w=0.357 //l=0.545 //layer=li \
 //thickness=0.1 //x=20.525 //y=7.4 //x2=19.98 //y2=7.4
r437 (  223 312 ) resistor r=4.11603 //w=0.68 //l=0.17 //layer=li \
 //thickness=0.1 //x=19.73 //y=7.23 //x2=19.73 //y2=7.4
r438 (  223 335 ) resistor r=33.1979 //w=0.187 //l=0.485 //layer=li \
 //thickness=0.1 //x=19.73 //y=7.23 //x2=19.73 //y2=6.745
r439 (  222 311 ) resistor r=2.94794 //w=0.34 //l=0.085 //layer=li \
 //thickness=0.1 //x=18.935 //y=7.4 //x2=18.85 //y2=7.4
r440 (  221 312 ) resistor r=2.94794 //w=0.34 //l=0.085 //layer=li \
 //thickness=0.1 //x=19.645 //y=7.4 //x2=19.73 //y2=7.4
r441 (  221 222 ) resistor r=25.4566 //w=0.357 //l=0.71 //layer=li \
 //thickness=0.1 //x=19.645 //y=7.4 //x2=18.935 //y2=7.4
r442 (  215 311 ) resistor r=4.11603 //w=0.68 //l=0.17 //layer=li \
 //thickness=0.1 //x=18.85 //y=7.23 //x2=18.85 //y2=7.4
r443 (  215 334 ) resistor r=56.4706 //w=0.187 //l=0.825 //layer=li \
 //thickness=0.1 //x=18.85 //y=7.23 //x2=18.85 //y2=6.405
r444 (  214 309 ) resistor r=5.4201 //w=0.34 //l=0.17 //layer=li \
 //thickness=0.1 //x=17.93 //y=7.4 //x2=17.76 //y2=7.4
r445 (  213 311 ) resistor r=2.94794 //w=0.34 //l=0.085 //layer=li \
 //thickness=0.1 //x=18.765 //y=7.4 //x2=18.85 //y2=7.4
r446 (  213 214 ) resistor r=29.9384 //w=0.357 //l=0.835 //layer=li \
 //thickness=0.1 //x=18.765 //y=7.4 //x2=17.93 //y2=7.4
r447 (  208 308 ) resistor r=2.94794 //w=0.34 //l=0.085 //layer=li \
 //thickness=0.1 //x=16.765 //y=7.4 //x2=16.68 //y2=7.4
r448 (  208 210 ) resistor r=22.409 //w=0.357 //l=0.625 //layer=li \
 //thickness=0.1 //x=16.765 //y=7.4 //x2=17.39 //y2=7.4
r449 (  207 309 ) resistor r=5.4201 //w=0.34 //l=0.17 //layer=li \
 //thickness=0.1 //x=17.59 //y=7.4 //x2=17.76 //y2=7.4
r450 (  207 210 ) resistor r=7.17087 //w=0.357 //l=0.2 //layer=li \
 //thickness=0.1 //x=17.59 //y=7.4 //x2=17.39 //y2=7.4
r451 (  201 308 ) resistor r=4.11603 //w=0.68 //l=0.17 //layer=li \
 //thickness=0.1 //x=16.68 //y=7.23 //x2=16.68 //y2=7.4
r452 (  201 333 ) resistor r=33.1979 //w=0.187 //l=0.485 //layer=li \
 //thickness=0.1 //x=16.68 //y=7.23 //x2=16.68 //y2=6.745
r453 (  198 307 ) resistor r=2.94794 //w=0.34 //l=0.085 //layer=li \
 //thickness=0.1 //x=15.885 //y=7.4 //x2=15.8 //y2=7.4
r454 (  198 200 ) resistor r=14.1625 //w=0.357 //l=0.395 //layer=li \
 //thickness=0.1 //x=15.885 //y=7.4 //x2=16.28 //y2=7.4
r455 (  197 308 ) resistor r=2.94794 //w=0.34 //l=0.085 //layer=li \
 //thickness=0.1 //x=16.595 //y=7.4 //x2=16.68 //y2=7.4
r456 (  197 200 ) resistor r=11.2941 //w=0.357 //l=0.315 //layer=li \
 //thickness=0.1 //x=16.595 //y=7.4 //x2=16.28 //y2=7.4
r457 (  191 307 ) resistor r=4.11603 //w=0.68 //l=0.17 //layer=li \
 //thickness=0.1 //x=15.8 //y=7.23 //x2=15.8 //y2=7.4
r458 (  191 332 ) resistor r=33.1979 //w=0.187 //l=0.485 //layer=li \
 //thickness=0.1 //x=15.8 //y=7.23 //x2=15.8 //y2=6.745
r459 (  188 306 ) resistor r=2.94794 //w=0.34 //l=0.085 //layer=li \
 //thickness=0.1 //x=15.005 //y=7.4 //x2=14.92 //y2=7.4
r460 (  188 190 ) resistor r=5.91597 //w=0.357 //l=0.165 //layer=li \
 //thickness=0.1 //x=15.005 //y=7.4 //x2=15.17 //y2=7.4
r461 (  187 307 ) resistor r=2.94794 //w=0.34 //l=0.085 //layer=li \
 //thickness=0.1 //x=15.715 //y=7.4 //x2=15.8 //y2=7.4
r462 (  187 190 ) resistor r=19.5406 //w=0.357 //l=0.545 //layer=li \
 //thickness=0.1 //x=15.715 //y=7.4 //x2=15.17 //y2=7.4
r463 (  181 306 ) resistor r=4.11603 //w=0.68 //l=0.17 //layer=li \
 //thickness=0.1 //x=14.92 //y=7.23 //x2=14.92 //y2=7.4
r464 (  181 331 ) resistor r=33.1979 //w=0.187 //l=0.485 //layer=li \
 //thickness=0.1 //x=14.92 //y=7.23 //x2=14.92 //y2=6.745
r465 (  180 305 ) resistor r=2.94794 //w=0.34 //l=0.085 //layer=li \
 //thickness=0.1 //x=14.125 //y=7.4 //x2=14.04 //y2=7.4
r466 (  179 306 ) resistor r=2.94794 //w=0.34 //l=0.085 //layer=li \
 //thickness=0.1 //x=14.835 //y=7.4 //x2=14.92 //y2=7.4
r467 (  179 180 ) resistor r=25.4566 //w=0.357 //l=0.71 //layer=li \
 //thickness=0.1 //x=14.835 //y=7.4 //x2=14.125 //y2=7.4
r468 (  173 305 ) resistor r=4.11603 //w=0.68 //l=0.17 //layer=li \
 //thickness=0.1 //x=14.04 //y=7.23 //x2=14.04 //y2=7.4
r469 (  173 330 ) resistor r=56.4706 //w=0.187 //l=0.825 //layer=li \
 //thickness=0.1 //x=14.04 //y=7.23 //x2=14.04 //y2=6.405
r470 (  172 303 ) resistor r=5.4201 //w=0.34 //l=0.17 //layer=li \
 //thickness=0.1 //x=13.12 //y=7.4 //x2=12.95 //y2=7.4
r471 (  171 305 ) resistor r=2.94794 //w=0.34 //l=0.085 //layer=li \
 //thickness=0.1 //x=13.955 //y=7.4 //x2=14.04 //y2=7.4
r472 (  171 172 ) resistor r=29.9384 //w=0.357 //l=0.835 //layer=li \
 //thickness=0.1 //x=13.955 //y=7.4 //x2=13.12 //y2=7.4
r473 (  166 302 ) resistor r=2.94794 //w=0.34 //l=0.085 //layer=li \
 //thickness=0.1 //x=12.255 //y=7.4 //x2=12.17 //y2=7.4
r474 (  166 168 ) resistor r=11.6527 //w=0.357 //l=0.325 //layer=li \
 //thickness=0.1 //x=12.255 //y=7.4 //x2=12.58 //y2=7.4
r475 (  165 303 ) resistor r=5.4201 //w=0.34 //l=0.17 //layer=li \
 //thickness=0.1 //x=12.78 //y=7.4 //x2=12.95 //y2=7.4
r476 (  165 168 ) resistor r=7.17087 //w=0.357 //l=0.2 //layer=li \
 //thickness=0.1 //x=12.78 //y=7.4 //x2=12.58 //y2=7.4
r477 (  159 302 ) resistor r=4.11603 //w=0.68 //l=0.17 //layer=li \
 //thickness=0.1 //x=12.17 //y=7.23 //x2=12.17 //y2=7.4
r478 (  159 329 ) resistor r=33.1979 //w=0.187 //l=0.485 //layer=li \
 //thickness=0.1 //x=12.17 //y=7.23 //x2=12.17 //y2=6.745
r479 (  156 301 ) resistor r=2.94794 //w=0.34 //l=0.085 //layer=li \
 //thickness=0.1 //x=11.375 //y=7.4 //x2=11.29 //y2=7.4
r480 (  156 158 ) resistor r=3.40616 //w=0.357 //l=0.095 //layer=li \
 //thickness=0.1 //x=11.375 //y=7.4 //x2=11.47 //y2=7.4
r481 (  155 302 ) resistor r=2.94794 //w=0.34 //l=0.085 //layer=li \
 //thickness=0.1 //x=12.085 //y=7.4 //x2=12.17 //y2=7.4
r482 (  155 158 ) resistor r=22.0504 //w=0.357 //l=0.615 //layer=li \
 //thickness=0.1 //x=12.085 //y=7.4 //x2=11.47 //y2=7.4
r483 (  149 301 ) resistor r=4.11603 //w=0.68 //l=0.17 //layer=li \
 //thickness=0.1 //x=11.29 //y=7.23 //x2=11.29 //y2=7.4
r484 (  149 328 ) resistor r=33.1979 //w=0.187 //l=0.485 //layer=li \
 //thickness=0.1 //x=11.29 //y=7.23 //x2=11.29 //y2=6.745
r485 (  148 300 ) resistor r=2.94794 //w=0.34 //l=0.085 //layer=li \
 //thickness=0.1 //x=10.495 //y=7.4 //x2=10.41 //y2=7.4
r486 (  147 301 ) resistor r=2.94794 //w=0.34 //l=0.085 //layer=li \
 //thickness=0.1 //x=11.205 //y=7.4 //x2=11.29 //y2=7.4
r487 (  147 148 ) resistor r=25.4566 //w=0.357 //l=0.71 //layer=li \