// File: DFFSNQX1.spi.DFFSNQX1.pxi
// Created: Tue Oct 15 15:47:07 2024
// 
simulator lang=spectre
x_PM_DFFSNQX1\%GND ( GND N_GND_c_8_p N_GND_c_134_p N_GND_c_2_p N_GND_c_9_p \
 N_GND_c_10_p N_GND_c_15_p N_GND_c_16_p N_GND_c_42_p N_GND_c_53_p N_GND_c_60_p \
 N_GND_c_74_p N_GND_c_81_p N_GND_c_89_p N_GND_c_1_p N_GND_c_3_p N_GND_c_4_p \
 N_GND_c_5_p N_GND_c_6_p N_GND_c_7_p N_GND_M0_noxref_d N_GND_M2_noxref_d \
 N_GND_M5_noxref_d N_GND_M8_noxref_d N_GND_M10_noxref_d N_GND_M12_noxref_d )  \
 PM_DFFSNQX1\%GND
x_PM_DFFSNQX1\%VDD ( VDD N_VDD_c_295_p N_VDD_c_296_p N_VDD_c_297_p \
 N_VDD_c_399_p N_VDD_c_400_p N_VDD_c_312_p N_VDD_c_389_p N_VDD_c_426_p \
 N_VDD_c_374_p N_VDD_c_375_p N_VDD_c_316_p N_VDD_c_337_p N_VDD_c_343_p \
 N_VDD_c_347_p N_VDD_c_378_p N_VDD_c_351_p N_VDD_c_393_p N_VDD_c_407_p \
 N_VDD_c_408_p N_VDD_c_409_p N_VDD_c_463_p N_VDD_c_475_p N_VDD_c_500_p \
 N_VDD_c_531_p N_VDD_c_287_n N_VDD_c_288_n N_VDD_c_289_n N_VDD_c_290_n \
 N_VDD_c_291_n N_VDD_c_292_n N_VDD_c_293_n N_VDD_M15_noxref_s \
 N_VDD_M16_noxref_d N_VDD_M18_noxref_d N_VDD_M19_noxref_s N_VDD_M20_noxref_d \
 N_VDD_M22_noxref_d N_VDD_M24_noxref_d N_VDD_M25_noxref_s N_VDD_M26_noxref_d \
 N_VDD_M28_noxref_d N_VDD_M30_noxref_d N_VDD_M31_noxref_s N_VDD_M32_noxref_d \
 N_VDD_M34_noxref_d N_VDD_M35_noxref_s N_VDD_M36_noxref_d N_VDD_M38_noxref_d \
 N_VDD_M39_noxref_s N_VDD_M40_noxref_d N_VDD_M42_noxref_d N_VDD_M44_noxref_d ) \
 PM_DFFSNQX1\%VDD
x_PM_DFFSNQX1\%noxref_3 ( N_noxref_3_c_591_n N_noxref_3_c_595_n \
 N_noxref_3_c_597_n N_noxref_3_c_601_n N_noxref_3_c_632_n N_noxref_3_c_636_n \
 N_noxref_3_c_638_n N_noxref_3_c_603_n N_noxref_3_c_710_p N_noxref_3_c_604_n \
 N_noxref_3_c_606_n N_noxref_3_c_607_n N_noxref_3_c_740_p \
 N_noxref_3_M2_noxref_g N_noxref_3_M5_noxref_g N_noxref_3_M19_noxref_g \
 N_noxref_3_M20_noxref_g N_noxref_3_M25_noxref_g N_noxref_3_M26_noxref_g \
 N_noxref_3_c_608_n N_noxref_3_c_610_n N_noxref_3_c_611_n N_noxref_3_c_612_n \
 N_noxref_3_c_613_n N_noxref_3_c_614_n N_noxref_3_c_615_n N_noxref_3_c_617_n \
 N_noxref_3_c_687_p N_noxref_3_c_657_n N_noxref_3_c_618_n N_noxref_3_c_620_n \
 N_noxref_3_c_621_n N_noxref_3_c_622_n N_noxref_3_c_623_n N_noxref_3_c_624_n \
 N_noxref_3_c_625_n N_noxref_3_c_627_n N_noxref_3_c_675_p N_noxref_3_c_659_n \
 N_noxref_3_M1_noxref_d N_noxref_3_M15_noxref_d N_noxref_3_M17_noxref_d )  \
 PM_DFFSNQX1\%noxref_3
x_PM_DFFSNQX1\%noxref_4 ( N_noxref_4_c_831_n N_noxref_4_c_832_n \
 N_noxref_4_c_847_n N_noxref_4_c_851_n N_noxref_4_c_853_n N_noxref_4_c_857_n \
 N_noxref_4_c_833_n N_noxref_4_c_926_p N_noxref_4_c_834_n N_noxref_4_c_835_n \
 N_noxref_4_c_936_p N_noxref_4_c_946_p N_noxref_4_M8_noxref_g \
 N_noxref_4_M31_noxref_g N_noxref_4_M32_noxref_g N_noxref_4_c_836_n \
 N_noxref_4_c_838_n N_noxref_4_c_839_n N_noxref_4_c_840_n N_noxref_4_c_841_n \
 N_noxref_4_c_842_n N_noxref_4_c_843_n N_noxref_4_c_845_n N_noxref_4_c_869_n \
 N_noxref_4_M7_noxref_d N_noxref_4_M25_noxref_d N_noxref_4_M27_noxref_d \
 N_noxref_4_M29_noxref_d )  PM_DFFSNQX1\%noxref_4
x_PM_DFFSNQX1\%CLK ( N_CLK_c_994_n N_CLK_c_1005_n CLK CLK CLK CLK CLK CLK CLK \
 CLK N_CLK_c_991_n N_CLK_c_1054_n N_CLK_c_992_n N_CLK_M3_noxref_g \
 N_CLK_M9_noxref_g N_CLK_M21_noxref_g N_CLK_M22_noxref_g N_CLK_M33_noxref_g \
 N_CLK_M34_noxref_g N_CLK_c_1034_n N_CLK_c_1037_n N_CLK_c_1168_p \
 N_CLK_c_1175_p N_CLK_c_1039_n N_CLK_c_1040_n N_CLK_c_1041_n N_CLK_c_1042_n \
 N_CLK_c_1095_p N_CLK_c_1063_n N_CLK_c_1066_n N_CLK_c_1068_n N_CLK_c_1082_p \
 N_CLK_c_1153_p N_CLK_c_1101_p N_CLK_c_1071_n N_CLK_c_1072_n N_CLK_c_1045_n \
 N_CLK_c_1073_n N_CLK_c_1133_p N_CLK_c_1075_n )  PM_DFFSNQX1\%CLK
x_PM_DFFSNQX1\%noxref_6 ( N_noxref_6_c_1189_n N_noxref_6_c_1191_n \
 N_noxref_6_c_1215_n N_noxref_6_c_1224_n N_noxref_6_c_1284_n \
 N_noxref_6_c_1192_n N_noxref_6_c_1227_n N_noxref_6_c_1231_n \
 N_noxref_6_c_1233_n N_noxref_6_c_1237_n N_noxref_6_c_1194_n \
 N_noxref_6_c_1293_n N_noxref_6_c_1336_n N_noxref_6_c_1195_n \
 N_noxref_6_c_1339_n N_noxref_6_c_1375_p N_noxref_6_c_1244_n \
 N_noxref_6_c_1294_n N_noxref_6_M1_noxref_g N_noxref_6_M10_noxref_g \
 N_noxref_6_M17_noxref_g N_noxref_6_M18_noxref_g N_noxref_6_M35_noxref_g \
 N_noxref_6_M36_noxref_g N_noxref_6_c_1300_n N_noxref_6_c_1301_n \
 N_noxref_6_c_1302_n N_noxref_6_c_1303_n N_noxref_6_c_1305_n \
 N_noxref_6_c_1306_n N_noxref_6_c_1308_n N_noxref_6_c_1309_n \
 N_noxref_6_c_1196_n N_noxref_6_c_1198_n N_noxref_6_c_1199_n \
 N_noxref_6_c_1200_n N_noxref_6_c_1201_n N_noxref_6_c_1202_n \
 N_noxref_6_c_1203_n N_noxref_6_c_1205_n N_noxref_6_c_1311_n \
 N_noxref_6_c_1312_n N_noxref_6_c_1314_n N_noxref_6_c_1254_n \
 N_noxref_6_M4_noxref_d N_noxref_6_M19_noxref_d N_noxref_6_M21_noxref_d \
 N_noxref_6_M23_noxref_d )  PM_DFFSNQX1\%noxref_6
x_PM_DFFSNQX1\%noxref_7 ( N_noxref_7_c_1475_n N_noxref_7_c_1531_p \
 N_noxref_7_c_1492_n N_noxref_7_c_1496_n N_noxref_7_c_1498_n \
 N_noxref_7_c_1476_n N_noxref_7_c_1532_p N_noxref_7_c_1477_n \
 N_noxref_7_c_1478_n N_noxref_7_c_1589_p N_noxref_7_M12_noxref_g \
 N_noxref_7_M39_noxref_g N_noxref_7_M40_noxref_g N_noxref_7_c_1479_n \
 N_noxref_7_c_1481_n N_noxref_7_c_1482_n N_noxref_7_c_1483_n \
 N_noxref_7_c_1484_n N_noxref_7_c_1485_n N_noxref_7_c_1486_n \
 N_noxref_7_c_1488_n N_noxref_7_c_1540_p N_noxref_7_c_1510_n \
 N_noxref_7_M11_noxref_d N_noxref_7_M35_noxref_d N_noxref_7_M37_noxref_d )  \
 PM_DFFSNQX1\%noxref_7
x_PM_DFFSNQX1\%SN ( N_SN_c_1620_n N_SN_c_1630_n SN SN SN SN SN SN SN SN SN \
 N_SN_c_1631_n N_SN_c_1632_n N_SN_M6_noxref_g N_SN_M13_noxref_g \
 N_SN_M27_noxref_g N_SN_M28_noxref_g N_SN_M41_noxref_g N_SN_M42_noxref_g \
 N_SN_c_1655_n N_SN_c_1658_n N_SN_c_1798_p N_SN_c_1806_p N_SN_c_1660_n \
 N_SN_c_1661_n N_SN_c_1662_n N_SN_c_1663_n N_SN_c_1680_n N_SN_c_1709_n \
 N_SN_c_1712_n N_SN_c_1834_p N_SN_c_1841_p N_SN_c_1714_n N_SN_c_1715_n \
 N_SN_c_1716_n N_SN_c_1717_n N_SN_c_1730_p N_SN_c_1665_n N_SN_c_1719_n )  \
 PM_DFFSNQX1\%SN
x_PM_DFFSNQX1\%noxref_9 ( N_noxref_9_c_1846_n N_noxref_9_c_1902_n \
 N_noxref_9_c_1848_n N_noxref_9_c_1912_n N_noxref_9_c_1849_n \
 N_noxref_9_c_1949_n N_noxref_9_c_1850_n N_noxref_9_c_1851_n \
 N_noxref_9_c_1864_n N_noxref_9_c_1868_n N_noxref_9_c_1870_n \
 N_noxref_9_c_1852_n N_noxref_9_c_2065_n N_noxref_9_c_1853_n \
 N_noxref_9_c_1854_n N_noxref_9_c_1972_n N_noxref_9_M4_noxref_g \
 N_noxref_9_M7_noxref_g N_noxref_9_M14_noxref_g N_noxref_9_M23_noxref_g \
 N_noxref_9_M24_noxref_g N_noxref_9_M29_noxref_g N_noxref_9_M30_noxref_g \
 N_noxref_9_M43_noxref_g N_noxref_9_M44_noxref_g N_noxref_9_c_1976_n \
 N_noxref_9_c_1977_n N_noxref_9_c_1978_n N_noxref_9_c_2028_n \
 N_noxref_9_c_2029_n N_noxref_9_c_2031_n N_noxref_9_c_2032_n \
 N_noxref_9_c_1927_n N_noxref_9_c_1928_n N_noxref_9_c_1929_n \
 N_noxref_9_c_1930_n N_noxref_9_c_1931_n N_noxref_9_c_1933_n \
 N_noxref_9_c_1934_n N_noxref_9_c_2081_n N_noxref_9_c_2082_n \
 N_noxref_9_c_2083_n N_noxref_9_c_2126_p N_noxref_9_c_2116_p \
 N_noxref_9_c_2128_p N_noxref_9_c_2117_p N_noxref_9_c_1907_n \
 N_noxref_9_c_1981_n N_noxref_9_c_1982_n N_noxref_9_c_1936_n \
 N_noxref_9_c_1937_n N_noxref_9_c_1939_n N_noxref_9_c_2092_n \
 N_noxref_9_c_2095_n N_noxref_9_c_2096_n N_noxref_9_M9_noxref_d \
 N_noxref_9_M31_noxref_d N_noxref_9_M33_noxref_d )  PM_DFFSNQX1\%noxref_9
x_PM_DFFSNQX1\%Q ( N_Q_c_2170_n N_Q_c_2213_n Q Q Q Q Q Q Q Q Q Q Q Q Q \
 N_Q_c_2214_n N_Q_c_2172_n N_Q_c_2180_n N_Q_c_2184_n N_Q_c_2186_n N_Q_c_2190_n \
 N_Q_c_2174_n N_Q_c_2335_p N_Q_c_2280_n N_Q_c_2304_n N_Q_M11_noxref_g \
 N_Q_M37_noxref_g N_Q_M38_noxref_g N_Q_c_2222_n N_Q_c_2225_n N_Q_c_2227_n \
 N_Q_c_2257_n N_Q_c_2259_n N_Q_c_2260_n N_Q_c_2230_n N_Q_c_2231_n N_Q_c_2232_n \
 N_Q_c_2266_n N_Q_c_2234_n N_Q_M14_noxref_d N_Q_M39_noxref_d N_Q_M41_noxref_d \
 N_Q_M43_noxref_d )  PM_DFFSNQX1\%Q
x_PM_DFFSNQX1\%D ( D D D D D D N_D_c_2340_n N_D_M0_noxref_g N_D_M15_noxref_g \
 N_D_M16_noxref_g N_D_c_2341_n N_D_c_2343_n N_D_c_2344_n N_D_c_2345_n \
 N_D_c_2346_n N_D_c_2347_n N_D_c_2348_n N_D_c_2350_n N_D_c_2358_n )  \
 PM_DFFSNQX1\%D
x_PM_DFFSNQX1\%noxref_12 ( N_noxref_12_c_2416_n N_noxref_12_c_2397_n \
 N_noxref_12_c_2401_n N_noxref_12_c_2404_n N_noxref_12_c_2405_n \
 N_noxref_12_c_2408_n N_noxref_12_M0_noxref_s )  PM_DFFSNQX1\%noxref_12
x_PM_DFFSNQX1\%noxref_13 ( N_noxref_13_c_2461_n N_noxref_13_c_2445_n \
 N_noxref_13_c_2449_n N_noxref_13_c_2452_n N_noxref_13_c_2472_n \
 N_noxref_13_M2_noxref_s )  PM_DFFSNQX1\%noxref_13
x_PM_DFFSNQX1\%noxref_14 ( N_noxref_14_c_2497_n N_noxref_14_c_2499_n \
 N_noxref_14_c_2502_n N_noxref_14_c_2505_n N_noxref_14_c_2528_n \
 N_noxref_14_M3_noxref_d N_noxref_14_M4_noxref_s )  PM_DFFSNQX1\%noxref_14
x_PM_DFFSNQX1\%noxref_15 ( N_noxref_15_c_2566_n N_noxref_15_c_2550_n \
 N_noxref_15_c_2554_n N_noxref_15_c_2557_n N_noxref_15_c_2583_n \
 N_noxref_15_M5_noxref_s )  PM_DFFSNQX1\%noxref_15
x_PM_DFFSNQX1\%noxref_16 ( N_noxref_16_c_2604_n N_noxref_16_c_2606_n \
 N_noxref_16_c_2609_n N_noxref_16_c_2612_n N_noxref_16_c_2620_n \
 N_noxref_16_M6_noxref_d N_noxref_16_M7_noxref_s )  PM_DFFSNQX1\%noxref_16
x_PM_DFFSNQX1\%noxref_17 ( N_noxref_17_c_2676_n N_noxref_17_c_2657_n \
 N_noxref_17_c_2661_n N_noxref_17_c_2664_n N_noxref_17_c_2665_n \
 N_noxref_17_c_2668_n N_noxref_17_M8_noxref_s )  PM_DFFSNQX1\%noxref_17
x_PM_DFFSNQX1\%noxref_18 ( N_noxref_18_c_2728_n N_noxref_18_c_2709_n \
 N_noxref_18_c_2713_n N_noxref_18_c_2716_n N_noxref_18_c_2717_n \
 N_noxref_18_c_2720_n N_noxref_18_M10_noxref_s )  PM_DFFSNQX1\%noxref_18
x_PM_DFFSNQX1\%noxref_19 ( N_noxref_19_c_2775_n N_noxref_19_c_2761_n \
 N_noxref_19_c_2765_n N_noxref_19_c_2768_n N_noxref_19_c_2791_n \
 N_noxref_19_M12_noxref_s )  PM_DFFSNQX1\%noxref_19
x_PM_DFFSNQX1\%noxref_20 ( N_noxref_20_c_2811_n N_noxref_20_c_2813_n \
 N_noxref_20_c_2816_n N_noxref_20_c_2818_n N_noxref_20_c_2839_n \
 N_noxref_20_M13_noxref_d N_noxref_20_M14_noxref_s )  PM_DFFSNQX1\%noxref_20
cc_1 ( N_GND_c_1_p N_VDD_c_287_n ) capacitor c=0.00989031f //x=23.68 //y=0 \
 //x2=23.68 //y2=7.4
cc_2 ( N_GND_c_2_p N_VDD_c_288_n ) capacitor c=0.00989031f //x=0.74 //y=0 \
 //x2=0.74 //y2=7.4
cc_3 ( N_GND_c_3_p N_VDD_c_289_n ) capacitor c=0.00582097f //x=3.33 //y=0 \
 //x2=3.33 //y2=7.4
cc_4 ( N_GND_c_4_p N_VDD_c_290_n ) capacitor c=0.0057235f //x=8.14 //y=0 \
 //x2=8.14 //y2=7.4
cc_5 ( N_GND_c_5_p N_VDD_c_291_n ) capacitor c=0.0057235f //x=12.95 //y=0 \
 //x2=12.95 //y2=7.4
cc_6 ( N_GND_c_6_p N_VDD_c_292_n ) capacitor c=0.00524516f //x=16.28 //y=0 \
 //x2=16.28 //y2=7.4
cc_7 ( N_GND_c_7_p N_VDD_c_293_n ) capacitor c=0.00802221f //x=19.61 //y=0 \
 //x2=19.61 //y2=7.4
cc_8 ( N_GND_c_8_p N_noxref_3_c_591_n ) capacitor c=0.0139834f //x=23.68 //y=0 \
 //x2=4.295 //y2=2.59
cc_9 ( N_GND_c_9_p N_noxref_3_c_591_n ) capacitor c=0.00230866f //x=3.16 //y=0 \
 //x2=4.295 //y2=2.59
cc_10 ( N_GND_c_10_p N_noxref_3_c_591_n ) capacitor c=0.00221947f //x=4.32 \
 //y=0 //x2=4.295 //y2=2.59
cc_11 ( N_GND_c_3_p N_noxref_3_c_591_n ) capacitor c=0.038878f //x=3.33 //y=0 \
 //x2=4.295 //y2=2.59
cc_12 ( N_GND_c_8_p N_noxref_3_c_595_n ) capacitor c=0.00222479f //x=23.68 \
 //y=0 //x2=2.705 //y2=2.59
cc_13 ( N_GND_c_3_p N_noxref_3_c_595_n ) capacitor c=0.00111411f //x=3.33 \
 //y=0 //x2=2.705 //y2=2.59
cc_14 ( N_GND_c_8_p N_noxref_3_c_597_n ) capacitor c=0.0394349f //x=23.68 \
 //y=0 //x2=9.135 //y2=2.59
cc_15 ( N_GND_c_15_p N_noxref_3_c_597_n ) capacitor c=0.00344363f //x=7.97 \
 //y=0 //x2=9.135 //y2=2.59
cc_16 ( N_GND_c_16_p N_noxref_3_c_597_n ) capacitor c=0.00221947f //x=9.13 \
 //y=0 //x2=9.135 //y2=2.59
cc_17 ( N_GND_c_4_p N_noxref_3_c_597_n ) capacitor c=0.0392112f //x=8.14 //y=0 \
 //x2=9.135 //y2=2.59
cc_18 ( N_GND_c_8_p N_noxref_3_c_601_n ) capacitor c=0.0038075f //x=23.68 \
 //y=0 //x2=4.705 //y2=2.59
cc_19 ( N_GND_c_3_p N_noxref_3_c_601_n ) capacitor c=7.88768e-19 //x=3.33 \
 //y=0 //x2=4.705 //y2=2.59
cc_20 ( N_GND_c_3_p N_noxref_3_c_603_n ) capacitor c=0.0430571f //x=3.33 //y=0 \
 //x2=2.505 //y2=1.655
cc_21 ( N_GND_c_2_p N_noxref_3_c_604_n ) capacitor c=0.00101801f //x=0.74 \
 //y=0 //x2=2.59 //y2=2.59
cc_22 ( N_GND_c_3_p N_noxref_3_c_604_n ) capacitor c=5.56859e-19 //x=3.33 \
 //y=0 //x2=2.59 //y2=2.59
cc_23 ( N_GND_c_3_p N_noxref_3_c_606_n ) capacitor c=0.0150282f //x=3.33 //y=0 \
 //x2=4.44 //y2=2.08
cc_24 ( N_GND_c_4_p N_noxref_3_c_607_n ) capacitor c=0.0147449f //x=8.14 //y=0 \
 //x2=9.25 //y2=2.08
cc_25 ( N_GND_c_10_p N_noxref_3_c_608_n ) capacitor c=0.00132755f //x=4.32 \
 //y=0 //x2=4.14 //y2=0.875
cc_26 ( N_GND_M2_noxref_d N_noxref_3_c_608_n ) capacitor c=0.00211996f \
 //x=4.215 //y=0.875 //x2=4.14 //y2=0.875
cc_27 ( N_GND_M2_noxref_d N_noxref_3_c_610_n ) capacitor c=0.00255985f \
 //x=4.215 //y=0.875 //x2=4.14 //y2=1.22
cc_28 ( N_GND_c_3_p N_noxref_3_c_611_n ) capacitor c=0.00195164f //x=3.33 \
 //y=0 //x2=4.14 //y2=1.53
cc_29 ( N_GND_c_3_p N_noxref_3_c_612_n ) capacitor c=0.0126573f //x=3.33 //y=0 \
 //x2=4.14 //y2=1.915
cc_30 ( N_GND_M2_noxref_d N_noxref_3_c_613_n ) capacitor c=0.0131341f \
 //x=4.215 //y=0.875 //x2=4.515 //y2=0.72
cc_31 ( N_GND_M2_noxref_d N_noxref_3_c_614_n ) capacitor c=0.00193146f \
 //x=4.215 //y=0.875 //x2=4.515 //y2=1.375
cc_32 ( N_GND_c_15_p N_noxref_3_c_615_n ) capacitor c=0.00129018f //x=7.97 \
 //y=0 //x2=4.67 //y2=0.875
cc_33 ( N_GND_M2_noxref_d N_noxref_3_c_615_n ) capacitor c=0.00257848f \
 //x=4.215 //y=0.875 //x2=4.67 //y2=0.875
cc_34 ( N_GND_M2_noxref_d N_noxref_3_c_617_n ) capacitor c=0.00255985f \
 //x=4.215 //y=0.875 //x2=4.67 //y2=1.22
cc_35 ( N_GND_c_16_p N_noxref_3_c_618_n ) capacitor c=0.00132755f //x=9.13 \
 //y=0 //x2=8.95 //y2=0.875
cc_36 ( N_GND_M5_noxref_d N_noxref_3_c_618_n ) capacitor c=0.00211996f \
 //x=9.025 //y=0.875 //x2=8.95 //y2=0.875
cc_37 ( N_GND_M5_noxref_d N_noxref_3_c_620_n ) capacitor c=0.00255985f \
 //x=9.025 //y=0.875 //x2=8.95 //y2=1.22
cc_38 ( N_GND_c_4_p N_noxref_3_c_621_n ) capacitor c=0.00204716f //x=8.14 \
 //y=0 //x2=8.95 //y2=1.53
cc_39 ( N_GND_c_4_p N_noxref_3_c_622_n ) capacitor c=0.0118433f //x=8.14 //y=0 \
 //x2=8.95 //y2=1.915
cc_40 ( N_GND_M5_noxref_d N_noxref_3_c_623_n ) capacitor c=0.0131341f \
 //x=9.025 //y=0.875 //x2=9.325 //y2=0.72
cc_41 ( N_GND_M5_noxref_d N_noxref_3_c_624_n ) capacitor c=0.00193146f \
 //x=9.025 //y=0.875 //x2=9.325 //y2=1.375
cc_42 ( N_GND_c_42_p N_noxref_3_c_625_n ) capacitor c=0.00129018f //x=12.78 \
 //y=0 //x2=9.48 //y2=0.875
cc_43 ( N_GND_M5_noxref_d N_noxref_3_c_625_n ) capacitor c=0.00257848f \
 //x=9.025 //y=0.875 //x2=9.48 //y2=0.875
cc_44 ( N_GND_M5_noxref_d N_noxref_3_c_627_n ) capacitor c=0.00255985f \
 //x=9.025 //y=0.875 //x2=9.48 //y2=1.22
cc_45 ( N_GND_c_2_p N_noxref_3_M1_noxref_d ) capacitor c=8.58106e-19 //x=0.74 \
 //y=0 //x2=1.96 //y2=0.905
cc_46 ( N_GND_c_3_p N_noxref_3_M1_noxref_d ) capacitor c=0.00616547f //x=3.33 \
 //y=0 //x2=1.96 //y2=0.905
cc_47 ( N_GND_M0_noxref_d N_noxref_3_M1_noxref_d ) capacitor c=0.00143464f \
 //x=0.99 //y=0.865 //x2=1.96 //y2=0.905
cc_48 ( N_GND_c_5_p N_noxref_4_c_831_n ) capacitor c=0.026175f //x=12.95 //y=0 \
 //x2=13.945 //y2=2.59
cc_49 ( N_GND_c_5_p N_noxref_4_c_832_n ) capacitor c=0.00102529f //x=12.95 \
 //y=0 //x2=12.325 //y2=2.59
cc_50 ( N_GND_c_5_p N_noxref_4_c_833_n ) capacitor c=0.0401238f //x=12.95 \
 //y=0 //x2=12.125 //y2=1.665
cc_51 ( N_GND_c_5_p N_noxref_4_c_834_n ) capacitor c=5.56859e-19 //x=12.95 \
 //y=0 //x2=12.21 //y2=2.59
cc_52 ( N_GND_c_5_p N_noxref_4_c_835_n ) capacitor c=0.0128176f //x=12.95 \
 //y=0 //x2=14.06 //y2=2.08
cc_53 ( N_GND_c_53_p N_noxref_4_c_836_n ) capacitor c=0.00135046f //x=14.045 \
 //y=0 //x2=13.865 //y2=0.865
cc_54 ( N_GND_M8_noxref_d N_noxref_4_c_836_n ) capacitor c=0.00220047f \
 //x=13.94 //y=0.865 //x2=13.865 //y2=0.865
cc_55 ( N_GND_M8_noxref_d N_noxref_4_c_838_n ) capacitor c=0.00255985f \
 //x=13.94 //y=0.865 //x2=13.865 //y2=1.21
cc_56 ( N_GND_c_5_p N_noxref_4_c_839_n ) capacitor c=0.00189421f //x=12.95 \
 //y=0 //x2=13.865 //y2=1.52
cc_57 ( N_GND_c_5_p N_noxref_4_c_840_n ) capacitor c=0.00992619f //x=12.95 \
 //y=0 //x2=13.865 //y2=1.915
cc_58 ( N_GND_M8_noxref_d N_noxref_4_c_841_n ) capacitor c=0.0131326f \
 //x=13.94 //y=0.865 //x2=14.24 //y2=0.71
cc_59 ( N_GND_M8_noxref_d N_noxref_4_c_842_n ) capacitor c=0.00193127f \
 //x=13.94 //y=0.865 //x2=14.24 //y2=1.365
cc_60 ( N_GND_c_60_p N_noxref_4_c_843_n ) capacitor c=0.00130622f //x=16.11 \
 //y=0 //x2=14.395 //y2=0.865
cc_61 ( N_GND_M8_noxref_d N_noxref_4_c_843_n ) capacitor c=0.00257848f \
 //x=13.94 //y=0.865 //x2=14.395 //y2=0.865
cc_62 ( N_GND_M8_noxref_d N_noxref_4_c_845_n ) capacitor c=0.00255985f \
 //x=13.94 //y=0.865 //x2=14.395 //y2=1.21
cc_63 ( N_GND_c_5_p N_noxref_4_M7_noxref_d ) capacitor c=0.00591582f //x=12.95 \
 //y=0 //x2=11.535 //y2=0.915
cc_64 ( N_GND_c_3_p N_CLK_c_991_n ) capacitor c=7.5188e-19 //x=3.33 //y=0 \
 //x2=5.55 //y2=2.08
cc_65 ( N_GND_c_5_p N_CLK_c_992_n ) capacitor c=9.18594e-19 //x=12.95 //y=0 \
 //x2=14.8 //y2=2.08
cc_66 ( N_GND_c_6_p N_CLK_c_992_n ) capacitor c=0.00110048f //x=16.28 //y=0 \
 //x2=14.8 //y2=2.08
cc_67 ( N_GND_c_8_p N_noxref_6_c_1189_n ) capacitor c=0.00601678f //x=23.68 \
 //y=0 //x2=7.28 //y2=4.07
cc_68 ( N_GND_c_3_p N_noxref_6_c_1189_n ) capacitor c=0.00249386f //x=3.33 \
 //y=0 //x2=7.28 //y2=4.07
cc_69 ( N_GND_c_8_p N_noxref_6_c_1191_n ) capacitor c=0.00138452f //x=23.68 \
 //y=0 //x2=1.965 //y2=4.07
cc_70 ( N_GND_c_2_p N_noxref_6_c_1192_n ) capacitor c=0.00115206f //x=0.74 \
 //y=0 //x2=1.85 //y2=2.08
cc_71 ( N_GND_c_3_p N_noxref_6_c_1192_n ) capacitor c=0.00110672f //x=3.33 \
 //y=0 //x2=1.85 //y2=2.08
cc_72 ( N_GND_c_4_p N_noxref_6_c_1194_n ) capacitor c=0.0425027f //x=8.14 \
 //y=0 //x2=7.315 //y2=1.665
cc_73 ( N_GND_c_6_p N_noxref_6_c_1195_n ) capacitor c=0.0154414f //x=16.28 \
 //y=0 //x2=17.39 //y2=2.08
cc_74 ( N_GND_c_74_p N_noxref_6_c_1196_n ) capacitor c=0.00135046f //x=17.375 \
 //y=0 //x2=17.195 //y2=0.865
cc_75 ( N_GND_M10_noxref_d N_noxref_6_c_1196_n ) capacitor c=0.00220047f \
 //x=17.27 //y=0.865 //x2=17.195 //y2=0.865
cc_76 ( N_GND_M10_noxref_d N_noxref_6_c_1198_n ) capacitor c=0.00255985f \
 //x=17.27 //y=0.865 //x2=17.195 //y2=1.21
cc_77 ( N_GND_c_6_p N_noxref_6_c_1199_n ) capacitor c=0.0018059f //x=16.28 \
 //y=0 //x2=17.195 //y2=1.52
cc_78 ( N_GND_c_6_p N_noxref_6_c_1200_n ) capacitor c=0.0101006f //x=16.28 \
 //y=0 //x2=17.195 //y2=1.915
cc_79 ( N_GND_M10_noxref_d N_noxref_6_c_1201_n ) capacitor c=0.0131326f \
 //x=17.27 //y=0.865 //x2=17.57 //y2=0.71
cc_80 ( N_GND_M10_noxref_d N_noxref_6_c_1202_n ) capacitor c=0.00193127f \
 //x=17.27 //y=0.865 //x2=17.57 //y2=1.365
cc_81 ( N_GND_c_81_p N_noxref_6_c_1203_n ) capacitor c=0.00130622f //x=19.44 \
 //y=0 //x2=17.725 //y2=0.865
cc_82 ( N_GND_M10_noxref_d N_noxref_6_c_1203_n ) capacitor c=0.00257848f \
 //x=17.27 //y=0.865 //x2=17.725 //y2=0.865
cc_83 ( N_GND_M10_noxref_d N_noxref_6_c_1205_n ) capacitor c=0.00255985f \
 //x=17.27 //y=0.865 //x2=17.725 //y2=1.21
cc_84 ( N_GND_c_4_p N_noxref_6_M4_noxref_d ) capacitor c=0.00591582f //x=8.14 \
 //y=0 //x2=6.725 //y2=0.915
cc_85 ( N_GND_c_7_p N_noxref_7_c_1475_n ) capacitor c=0.00949826f //x=19.61 \
 //y=0 //x2=20.605 //y2=2.96
cc_86 ( N_GND_c_7_p N_noxref_7_c_1476_n ) capacitor c=0.0435299f //x=19.61 \
 //y=0 //x2=18.785 //y2=1.655
cc_87 ( N_GND_c_6_p N_noxref_7_c_1477_n ) capacitor c=9.64732e-19 //x=16.28 \
 //y=0 //x2=18.87 //y2=2.96
cc_88 ( N_GND_c_7_p N_noxref_7_c_1478_n ) capacitor c=0.0156304f //x=19.61 \
 //y=0 //x2=20.72 //y2=2.08
cc_89 ( N_GND_c_89_p N_noxref_7_c_1479_n ) capacitor c=0.00132755f //x=20.6 \
 //y=0 //x2=20.42 //y2=0.875
cc_90 ( N_GND_M12_noxref_d N_noxref_7_c_1479_n ) capacitor c=0.00211996f \
 //x=20.495 //y=0.875 //x2=20.42 //y2=0.875
cc_91 ( N_GND_M12_noxref_d N_noxref_7_c_1481_n ) capacitor c=0.00255985f \
 //x=20.495 //y=0.875 //x2=20.42 //y2=1.22
cc_92 ( N_GND_c_7_p N_noxref_7_c_1482_n ) capacitor c=0.00195164f //x=19.61 \
 //y=0 //x2=20.42 //y2=1.53
cc_93 ( N_GND_c_7_p N_noxref_7_c_1483_n ) capacitor c=0.0110952f //x=19.61 \
 //y=0 //x2=20.42 //y2=1.915
cc_94 ( N_GND_M12_noxref_d N_noxref_7_c_1484_n ) capacitor c=0.0131341f \
 //x=20.495 //y=0.875 //x2=20.795 //y2=0.72
cc_95 ( N_GND_M12_noxref_d N_noxref_7_c_1485_n ) capacitor c=0.00193146f \
 //x=20.495 //y=0.875 //x2=20.795 //y2=1.375
cc_96 ( N_GND_c_1_p N_noxref_7_c_1486_n ) capacitor c=0.00129018f //x=23.68 \
 //y=0 //x2=20.95 //y2=0.875
cc_97 ( N_GND_M12_noxref_d N_noxref_7_c_1486_n ) capacitor c=0.00257848f \
 //x=20.495 //y=0.875 //x2=20.95 //y2=0.875
cc_98 ( N_GND_M12_noxref_d N_noxref_7_c_1488_n ) capacitor c=0.00255985f \
 //x=20.495 //y=0.875 //x2=20.95 //y2=1.22
cc_99 ( N_GND_c_6_p N_noxref_7_M11_noxref_d ) capacitor c=8.58106e-19 \
 //x=16.28 //y=0 //x2=18.24 //y2=0.905
cc_100 ( N_GND_c_7_p N_noxref_7_M11_noxref_d ) capacitor c=0.00616547f \
 //x=19.61 //y=0 //x2=18.24 //y2=0.905
cc_101 ( N_GND_M10_noxref_d N_noxref_7_M11_noxref_d ) capacitor c=0.00143464f \
 //x=17.27 //y=0.865 //x2=18.24 //y2=0.905
cc_102 ( N_GND_c_8_p N_SN_c_1620_n ) capacitor c=0.108864f //x=23.68 //y=0 \
 //x2=21.715 //y2=2.22
cc_103 ( N_GND_c_42_p N_SN_c_1620_n ) capacitor c=0.00447829f //x=12.78 //y=0 \
 //x2=21.715 //y2=2.22
cc_104 ( N_GND_c_53_p N_SN_c_1620_n ) capacitor c=0.00347653f //x=14.045 //y=0 \
 //x2=21.715 //y2=2.22
cc_105 ( N_GND_c_60_p N_SN_c_1620_n ) capacitor c=0.00411932f //x=16.11 //y=0 \
 //x2=21.715 //y2=2.22
cc_106 ( N_GND_c_74_p N_SN_c_1620_n ) capacitor c=0.00347653f //x=17.375 //y=0 \
 //x2=21.715 //y2=2.22
cc_107 ( N_GND_c_81_p N_SN_c_1620_n ) capacitor c=0.00411932f //x=19.44 //y=0 \
 //x2=21.715 //y2=2.22
cc_108 ( N_GND_c_89_p N_SN_c_1620_n ) capacitor c=0.00274252f //x=20.6 //y=0 \
 //x2=21.715 //y2=2.22
cc_109 ( N_GND_c_5_p N_SN_c_1620_n ) capacitor c=0.0379964f //x=12.95 //y=0 \
 //x2=21.715 //y2=2.22
cc_110 ( N_GND_c_6_p N_SN_c_1620_n ) capacitor c=0.0430854f //x=16.28 //y=0 \
 //x2=21.715 //y2=2.22
cc_111 ( N_GND_c_7_p N_SN_c_1620_n ) capacitor c=0.0401775f //x=19.61 //y=0 \
 //x2=21.715 //y2=2.22
cc_112 ( N_GND_c_8_p N_SN_c_1630_n ) capacitor c=0.0019104f //x=23.68 //y=0 \
 //x2=10.475 //y2=2.22
cc_113 ( N_GND_c_4_p N_SN_c_1631_n ) capacitor c=9.83618e-19 //x=8.14 //y=0 \
 //x2=10.36 //y2=2.08
cc_114 ( N_GND_c_7_p N_SN_c_1632_n ) capacitor c=5.94159e-19 //x=19.61 //y=0 \
 //x2=21.83 //y2=2.08
cc_115 ( N_GND_c_8_p N_noxref_9_c_1846_n ) capacitor c=0.00925958f //x=23.68 \
 //y=0 //x2=11.355 //y2=3.7
cc_116 ( N_GND_c_4_p N_noxref_9_c_1846_n ) capacitor c=0.0034979f //x=8.14 \
 //y=0 //x2=11.355 //y2=3.7
cc_117 ( N_GND_c_5_p N_noxref_9_c_1848_n ) capacitor c=0.0034979f //x=12.95 \
 //y=0 //x2=15.425 //y2=3.7
cc_118 ( N_GND_c_6_p N_noxref_9_c_1849_n ) capacitor c=0.00390249f //x=16.28 \
 //y=0 //x2=22.825 //y2=3.7
cc_119 ( N_GND_c_4_p N_noxref_9_c_1850_n ) capacitor c=7.88616e-19 //x=8.14 \
 //y=0 //x2=6.66 //y2=2.08
cc_120 ( N_GND_c_5_p N_noxref_9_c_1851_n ) capacitor c=0.00101012f //x=12.95 \
 //y=0 //x2=11.47 //y2=2.08
cc_121 ( N_GND_c_6_p N_noxref_9_c_1852_n ) capacitor c=0.0432305f //x=16.28 \
 //y=0 //x2=15.455 //y2=1.655
cc_122 ( N_GND_c_5_p N_noxref_9_c_1853_n ) capacitor c=9.64732e-19 //x=12.95 \
 //y=0 //x2=15.54 //y2=3.7
cc_123 ( N_GND_c_1_p N_noxref_9_c_1854_n ) capacitor c=0.00128267f //x=23.68 \
 //y=0 //x2=22.94 //y2=2.08
cc_124 ( N_GND_c_5_p N_noxref_9_M9_noxref_d ) capacitor c=8.58106e-19 \
 //x=12.95 //y=0 //x2=14.91 //y2=0.905
cc_125 ( N_GND_c_6_p N_noxref_9_M9_noxref_d ) capacitor c=0.00616547f \
 //x=16.28 //y=0 //x2=14.91 //y2=0.905
cc_126 ( N_GND_M8_noxref_d N_noxref_9_M9_noxref_d ) capacitor c=0.00143464f \
 //x=13.94 //y=0.865 //x2=14.91 //y2=0.905
cc_127 ( N_GND_c_8_p N_Q_c_2170_n ) capacitor c=0.0148039f //x=23.68 //y=0 \
 //x2=23.565 //y2=3.33
cc_128 ( N_GND_c_1_p N_Q_c_2170_n ) capacitor c=8.39131e-19 //x=23.68 //y=0 \
 //x2=23.565 //y2=3.33
cc_129 ( N_GND_c_6_p N_Q_c_2172_n ) capacitor c=7.1088e-19 //x=16.28 //y=0 \
 //x2=18.13 //y2=2.08
cc_130 ( N_GND_c_7_p N_Q_c_2172_n ) capacitor c=7.76678e-19 //x=19.61 //y=0 \
 //x2=18.13 //y2=2.08
cc_131 ( N_GND_c_1_p N_Q_c_2174_n ) capacitor c=0.0461865f //x=23.68 //y=0 \
 //x2=23.595 //y2=1.665
cc_132 ( N_GND_c_1_p N_Q_M14_noxref_d ) capacitor c=0.00593061f //x=23.68 \
 //y=0 //x2=23.005 //y2=0.915
cc_133 ( N_GND_c_2_p N_D_c_2340_n ) capacitor c=0.0177675f //x=0.74 //y=0 \
 //x2=1.11 //y2=2.08
cc_134 ( N_GND_c_134_p N_D_c_2341_n ) capacitor c=0.00135046f //x=1.095 //y=0 \
 //x2=0.915 //y2=0.865
cc_135 ( N_GND_M0_noxref_d N_D_c_2341_n ) capacitor c=0.00220047f //x=0.99 \
 //y=0.865 //x2=0.915 //y2=0.865
cc_136 ( N_GND_M0_noxref_d N_D_c_2343_n ) capacitor c=0.00255985f //x=0.99 \
 //y=0.865 //x2=0.915 //y2=1.21
cc_137 ( N_GND_c_2_p N_D_c_2344_n ) capacitor c=0.00264481f //x=0.74 //y=0 \
 //x2=0.915 //y2=1.52
cc_138 ( N_GND_c_2_p N_D_c_2345_n ) capacitor c=0.0121947f //x=0.74 //y=0 \
 //x2=0.915 //y2=1.915
cc_139 ( N_GND_M0_noxref_d N_D_c_2346_n ) capacitor c=0.0131326f //x=0.99 \
 //y=0.865 //x2=1.29 //y2=0.71
cc_140 ( N_GND_M0_noxref_d N_D_c_2347_n ) capacitor c=0.00193127f //x=0.99 \
 //y=0.865 //x2=1.29 //y2=1.365
cc_141 ( N_GND_c_9_p N_D_c_2348_n ) capacitor c=0.00130622f //x=3.16 //y=0 \
 //x2=1.445 //y2=0.865
cc_142 ( N_GND_M0_noxref_d N_D_c_2348_n ) capacitor c=0.00257848f //x=0.99 \
 //y=0.865 //x2=1.445 //y2=0.865
cc_143 ( N_GND_M0_noxref_d N_D_c_2350_n ) capacitor c=0.00255985f //x=0.99 \
 //y=0.865 //x2=1.445 //y2=1.21
cc_144 ( N_GND_c_8_p N_noxref_12_c_2397_n ) capacitor c=0.00710948f //x=23.68 \
 //y=0 //x2=1.58 //y2=1.58
cc_145 ( N_GND_c_134_p N_noxref_12_c_2397_n ) capacitor c=0.00111428f \
 //x=1.095 //y=0 //x2=1.58 //y2=1.58
cc_146 ( N_GND_c_9_p N_noxref_12_c_2397_n ) capacitor c=0.00180846f //x=3.16 \
 //y=0 //x2=1.58 //y2=1.58
cc_147 ( N_GND_M0_noxref_d N_noxref_12_c_2397_n ) capacitor c=0.0090983f \
 //x=0.99 //y=0.865 //x2=1.58 //y2=1.58
cc_148 ( N_GND_c_8_p N_noxref_12_c_2401_n ) capacitor c=0.00686741f //x=23.68 \
 //y=0 //x2=1.665 //y2=0.615
cc_149 ( N_GND_c_9_p N_noxref_12_c_2401_n ) capacitor c=0.0146208f //x=3.16 \
 //y=0 //x2=1.665 //y2=0.615
cc_150 ( N_GND_M0_noxref_d N_noxref_12_c_2401_n ) capacitor c=0.033812f \
 //x=0.99 //y=0.865 //x2=1.665 //y2=0.615
cc_151 ( N_GND_c_2_p N_noxref_12_c_2404_n ) capacitor c=2.91423e-19 //x=0.74 \
 //y=0 //x2=1.665 //y2=1.495
cc_152 ( N_GND_c_8_p N_noxref_12_c_2405_n ) capacitor c=0.0134195f //x=23.68 \
 //y=0 //x2=2.55 //y2=0.53
cc_153 ( N_GND_c_9_p N_noxref_12_c_2405_n ) capacitor c=0.0372723f //x=3.16 \
 //y=0 //x2=2.55 //y2=0.53
cc_154 ( N_GND_c_1_p N_noxref_12_c_2405_n ) capacitor c=0.00198522f //x=23.68 \
 //y=0 //x2=2.55 //y2=0.53
cc_155 ( N_GND_c_8_p N_noxref_12_c_2408_n ) capacitor c=0.0027057f //x=23.68 \
 //y=0 //x2=2.635 //y2=0.615
cc_156 ( N_GND_c_9_p N_noxref_12_c_2408_n ) capacitor c=0.0147125f //x=3.16 \
 //y=0 //x2=2.635 //y2=0.615
cc_157 ( N_GND_c_3_p N_noxref_12_c_2408_n ) capacitor c=0.0431718f //x=3.33 \
 //y=0 //x2=2.635 //y2=0.615
cc_158 ( N_GND_c_8_p N_noxref_12_M0_noxref_s ) capacitor c=0.00723598f \
 //x=23.68 //y=0 //x2=0.56 //y2=0.365
cc_159 ( N_GND_c_134_p N_noxref_12_M0_noxref_s ) capacitor c=0.0146208f \
 //x=1.095 //y=0 //x2=0.56 //y2=0.365
cc_160 ( N_GND_c_2_p N_noxref_12_M0_noxref_s ) capacitor c=0.0594057f //x=0.74 \
 //y=0 //x2=0.56 //y2=0.365
cc_161 ( N_GND_c_3_p N_noxref_12_M0_noxref_s ) capacitor c=0.00198098f \
 //x=3.33 //y=0 //x2=0.56 //y2=0.365
cc_162 ( N_GND_M0_noxref_d N_noxref_12_M0_noxref_s ) capacitor c=0.0334197f \
 //x=0.99 //y=0.865 //x2=0.56 //y2=0.365
cc_163 ( N_GND_c_8_p N_noxref_13_c_2445_n ) capacitor c=0.00529429f //x=23.68 \
 //y=0 //x2=4.805 //y2=1.59
cc_164 ( N_GND_c_10_p N_noxref_13_c_2445_n ) capacitor c=0.00111496f //x=4.32 \
 //y=0 //x2=4.805 //y2=1.59
cc_165 ( N_GND_c_15_p N_noxref_13_c_2445_n ) capacitor c=0.0018066f //x=7.97 \
 //y=0 //x2=4.805 //y2=1.59
cc_166 ( N_GND_M2_noxref_d N_noxref_13_c_2445_n ) capacitor c=0.00868399f \
 //x=4.215 //y=0.875 //x2=4.805 //y2=1.59
cc_167 ( N_GND_c_8_p N_noxref_13_c_2449_n ) capacitor c=0.00266608f //x=23.68 \
 //y=0 //x2=4.89 //y2=0.625
cc_168 ( N_GND_c_15_p N_noxref_13_c_2449_n ) capacitor c=0.0141814f //x=7.97 \
 //y=0 //x2=4.89 //y2=0.625
cc_169 ( N_GND_M2_noxref_d N_noxref_13_c_2449_n ) capacitor c=0.033954f \
 //x=4.215 //y=0.875 //x2=4.89 //y2=0.625
cc_170 ( N_GND_c_8_p N_noxref_13_c_2452_n ) capacitor c=0.0109327f //x=23.68 \
 //y=0 //x2=5.775 //y2=0.54
cc_171 ( N_GND_c_15_p N_noxref_13_c_2452_n ) capacitor c=0.0361235f //x=7.97 \
 //y=0 //x2=5.775 //y2=0.54
cc_172 ( N_GND_c_1_p N_noxref_13_c_2452_n ) capacitor c=0.00177401f //x=23.68 \
 //y=0 //x2=5.775 //y2=0.54
cc_173 ( N_GND_c_8_p N_noxref_13_M2_noxref_s ) capacitor c=0.00532331f \
 //x=23.68 //y=0 //x2=3.785 //y2=0.375
cc_174 ( N_GND_c_10_p N_noxref_13_M2_noxref_s ) capacitor c=0.0141814f \
 //x=4.32 //y=0 //x2=3.785 //y2=0.375
cc_175 ( N_GND_c_15_p N_noxref_13_M2_noxref_s ) capacitor c=0.0132355f \
 //x=7.97 //y=0 //x2=3.785 //y2=0.375
cc_176 ( N_GND_c_3_p N_noxref_13_M2_noxref_s ) capacitor c=0.0696963f //x=3.33 \
 //y=0 //x2=3.785 //y2=0.375
cc_177 ( N_GND_c_4_p N_noxref_13_M2_noxref_s ) capacitor c=3.31601e-19 \
 //x=8.14 //y=0 //x2=3.785 //y2=0.375
cc_178 ( N_GND_M2_noxref_d N_noxref_13_M2_noxref_s ) capacitor c=0.033718f \
 //x=4.215 //y=0.875 //x2=3.785 //y2=0.375
cc_179 ( N_GND_c_8_p N_noxref_14_c_2497_n ) capacitor c=0.00364762f //x=23.68 \
 //y=0 //x2=6.345 //y2=0.995
cc_180 ( N_GND_c_15_p N_noxref_14_c_2497_n ) capacitor c=0.00940048f //x=7.97 \
 //y=0 //x2=6.345 //y2=0.995
cc_181 ( N_GND_c_8_p N_noxref_14_c_2499_n ) capacitor c=0.00266608f //x=23.68 \
 //y=0 //x2=6.43 //y2=0.625
cc_182 ( N_GND_c_15_p N_noxref_14_c_2499_n ) capacitor c=0.0141814f //x=7.97 \
 //y=0 //x2=6.43 //y2=0.625
cc_183 ( N_GND_M2_noxref_d N_noxref_14_c_2499_n ) capacitor c=6.21394e-19 \
 //x=4.215 //y=0.875 //x2=6.43 //y2=0.625
cc_184 ( N_GND_c_8_p N_noxref_14_c_2502_n ) capacitor c=0.0110095f //x=23.68 \
 //y=0 //x2=7.315 //y2=0.54
cc_185 ( N_GND_c_15_p N_noxref_14_c_2502_n ) capacitor c=0.0365163f //x=7.97 \
 //y=0 //x2=7.315 //y2=0.54
cc_186 ( N_GND_c_1_p N_noxref_14_c_2502_n ) capacitor c=0.00189501f //x=23.68 \
 //y=0 //x2=7.315 //y2=0.54
cc_187 ( N_GND_c_8_p N_noxref_14_c_2505_n ) capacitor c=0.00266421f //x=23.68 \
 //y=0 //x2=7.4 //y2=0.625
cc_188 ( N_GND_c_15_p N_noxref_14_c_2505_n ) capacitor c=0.0141195f //x=7.97 \
 //y=0 //x2=7.4 //y2=0.625