// File: dffsnrnx1_pcell.spi.pex
// Created: Tue Oct 15 15:56:04 2024
// Program "Calibre xRC"
// Version "v2023.2_27.15"
// Nominal Temperature: 30C
// Circuit Temperature: 30C
// 
simulator lang=spectre
subckt PM_DFFSNRNX1_PCELL\%noxref_1 ( 49 53 56 61 71 79 89 97 107 115 125 133 \
 143 158 162 164 166 168 170 172 173 174 175 176 177 )
c312 ( 177 0 ) capacitor c=0.0226424f //x=24.935 //y=0.875
c313 ( 176 0 ) capacitor c=0.0225954f //x=20.125 //y=0.875
c314 ( 175 0 ) capacitor c=0.0225954f //x=15.315 //y=0.875
c315 ( 174 0 ) capacitor c=0.0225954f //x=10.505 //y=0.875
c316 ( 173 0 ) capacitor c=0.0225954f //x=5.695 //y=0.875
c317 ( 172 0 ) capacitor c=0.0226959f //x=0.885 //y=0.875
c318 ( 171 0 ) capacitor c=0.00440144f //x=25.125 //y=0
c319 ( 170 0 ) capacitor c=0.108076f //x=24.05 //y=0
c320 ( 169 0 ) capacitor c=0.00440144f //x=20.315 //y=0
c321 ( 168 0 ) capacitor c=0.106903f //x=19.24 //y=0
c322 ( 167 0 ) capacitor c=0.00440144f //x=15.505 //y=0
c323 ( 166 0 ) capacitor c=0.107052f //x=14.43 //y=0
c324 ( 165 0 ) capacitor c=0.00440144f //x=10.695 //y=0
c325 ( 164 0 ) capacitor c=0.107294f //x=9.62 //y=0
c326 ( 163 0 ) capacitor c=0.00440144f //x=5.885 //y=0
c327 ( 162 0 ) capacitor c=0.10703f //x=4.81 //y=0
c328 ( 161 0 ) capacitor c=0.00440144f //x=1.075 //y=0
c329 ( 158 0 ) capacitor c=0.322126f //x=28.12 //y=0
c330 ( 143 0 ) capacitor c=0.0339617f //x=25.04 //y=0
c331 ( 133 0 ) capacitor c=0.133607f //x=23.88 //y=0
c332 ( 125 0 ) capacitor c=0.0339325f //x=20.23 //y=0
c333 ( 115 0 ) capacitor c=0.133561f //x=19.07 //y=0
c334 ( 107 0 ) capacitor c=0.0339325f //x=15.42 //y=0
c335 ( 97 0 ) capacitor c=0.133362f //x=14.26 //y=0
c336 ( 89 0 ) capacitor c=0.0339325f //x=10.61 //y=0
c337 ( 79 0 ) capacitor c=0.133362f //x=9.45 //y=0
c338 ( 71 0 ) capacitor c=0.0339325f //x=5.8 //y=0
c339 ( 61 0 ) capacitor c=0.133402f //x=4.64 //y=0
c340 ( 56 0 ) capacitor c=0.178058f //x=0.74 //y=0
c341 ( 53 0 ) capacitor c=0.0367385f //x=0.99 //y=0
c342 ( 49 0 ) capacitor c=0.892258f //x=28.12 //y=0
r343 (  156 158 ) resistor r=39.7983 //w=0.357 //l=1.11 //layer=li \
 //thickness=0.1 //x=27.01 //y=0 //x2=28.12 //y2=0
r344 (  154 156 ) resistor r=39.7983 //w=0.357 //l=1.11 //layer=li \
 //thickness=0.1 //x=25.9 //y=0 //x2=27.01 //y2=0
r345 (  152 171 ) resistor r=2.94794 //w=0.34 //l=0.085 //layer=li \
 //thickness=0.1 //x=25.21 //y=0 //x2=25.125 //y2=0
r346 (  152 154 ) resistor r=24.7395 //w=0.357 //l=0.69 //layer=li \
 //thickness=0.1 //x=25.21 //y=0 //x2=25.9 //y2=0
r347 (  147 171 ) resistor r=4.11603 //w=0.68 //l=0.17 //layer=li \
 //thickness=0.1 //x=25.125 //y=0.17 //x2=25.125 //y2=0
r348 (  147 177 ) resistor r=54.4171 //w=0.187 //l=0.795 //layer=li \
 //thickness=0.1 //x=25.125 //y=0.17 //x2=25.125 //y2=0.965
r349 (  144 170 ) resistor r=5.4201 //w=0.34 //l=0.17 //layer=li \
 //thickness=0.1 //x=24.22 //y=0 //x2=24.05 //y2=0
r350 (  144 146 ) resistor r=20.437 //w=0.357 //l=0.57 //layer=li \
 //thickness=0.1 //x=24.22 //y=0 //x2=24.79 //y2=0
r351 (  143 171 ) resistor r=2.94794 //w=0.34 //l=0.085 //layer=li \
 //thickness=0.1 //x=25.04 //y=0 //x2=25.125 //y2=0
r352 (  143 146 ) resistor r=8.96359 //w=0.357 //l=0.25 //layer=li \
 //thickness=0.1 //x=25.04 //y=0 //x2=24.79 //y2=0
r353 (  138 140 ) resistor r=39.7983 //w=0.357 //l=1.11 //layer=li \
 //thickness=0.1 //x=22.2 //y=0 //x2=23.31 //y2=0
r354 (  136 138 ) resistor r=39.7983 //w=0.357 //l=1.11 //layer=li \
 //thickness=0.1 //x=21.09 //y=0 //x2=22.2 //y2=0
r355 (  134 169 ) resistor r=2.94794 //w=0.34 //l=0.085 //layer=li \
 //thickness=0.1 //x=20.4 //y=0 //x2=20.315 //y2=0
r356 (  134 136 ) resistor r=24.7395 //w=0.357 //l=0.69 //layer=li \
 //thickness=0.1 //x=20.4 //y=0 //x2=21.09 //y2=0
r357 (  133 170 ) resistor r=5.4201 //w=0.34 //l=0.17 //layer=li \
 //thickness=0.1 //x=23.88 //y=0 //x2=24.05 //y2=0
r358 (  133 140 ) resistor r=20.437 //w=0.357 //l=0.57 //layer=li \
 //thickness=0.1 //x=23.88 //y=0 //x2=23.31 //y2=0
r359 (  129 169 ) resistor r=4.11603 //w=0.68 //l=0.17 //layer=li \
 //thickness=0.1 //x=20.315 //y=0.17 //x2=20.315 //y2=0
r360 (  129 176 ) resistor r=54.4171 //w=0.187 //l=0.795 //layer=li \
 //thickness=0.1 //x=20.315 //y=0.17 //x2=20.315 //y2=0.965
r361 (  126 168 ) resistor r=5.4201 //w=0.34 //l=0.17 //layer=li \
 //thickness=0.1 //x=19.41 //y=0 //x2=19.24 //y2=0
r362 (  126 128 ) resistor r=20.437 //w=0.357 //l=0.57 //layer=li \
 //thickness=0.1 //x=19.41 //y=0 //x2=19.98 //y2=0
r363 (  125 169 ) resistor r=2.94794 //w=0.34 //l=0.085 //layer=li \
 //thickness=0.1 //x=20.23 //y=0 //x2=20.315 //y2=0
r364 (  125 128 ) resistor r=8.96359 //w=0.357 //l=0.25 //layer=li \
 //thickness=0.1 //x=20.23 //y=0 //x2=19.98 //y2=0
r365 (  120 122 ) resistor r=39.7983 //w=0.357 //l=1.11 //layer=li \
 //thickness=0.1 //x=17.39 //y=0 //x2=18.5 //y2=0
r366 (  118 120 ) resistor r=39.7983 //w=0.357 //l=1.11 //layer=li \
 //thickness=0.1 //x=16.28 //y=0 //x2=17.39 //y2=0
r367 (  116 167 ) resistor r=2.94794 //w=0.34 //l=0.085 //layer=li \
 //thickness=0.1 //x=15.59 //y=0 //x2=15.505 //y2=0
r368 (  116 118 ) resistor r=24.7395 //w=0.357 //l=0.69 //layer=li \
 //thickness=0.1 //x=15.59 //y=0 //x2=16.28 //y2=0
r369 (  115 168 ) resistor r=5.4201 //w=0.34 //l=0.17 //layer=li \
 //thickness=0.1 //x=19.07 //y=0 //x2=19.24 //y2=0
r370 (  115 122 ) resistor r=20.437 //w=0.357 //l=0.57 //layer=li \
 //thickness=0.1 //x=19.07 //y=0 //x2=18.5 //y2=0
r371 (  111 167 ) resistor r=4.11603 //w=0.68 //l=0.17 //layer=li \
 //thickness=0.1 //x=15.505 //y=0.17 //x2=15.505 //y2=0
r372 (  111 175 ) resistor r=54.4171 //w=0.187 //l=0.795 //layer=li \
 //thickness=0.1 //x=15.505 //y=0.17 //x2=15.505 //y2=0.965
r373 (  108 166 ) resistor r=5.4201 //w=0.34 //l=0.17 //layer=li \
 //thickness=0.1 //x=14.6 //y=0 //x2=14.43 //y2=0
r374 (  108 110 ) resistor r=20.437 //w=0.357 //l=0.57 //layer=li \
 //thickness=0.1 //x=14.6 //y=0 //x2=15.17 //y2=0
r375 (  107 167 ) resistor r=2.94794 //w=0.34 //l=0.085 //layer=li \
 //thickness=0.1 //x=15.42 //y=0 //x2=15.505 //y2=0
r376 (  107 110 ) resistor r=8.96359 //w=0.357 //l=0.25 //layer=li \
 //thickness=0.1 //x=15.42 //y=0 //x2=15.17 //y2=0
r377 (  102 104 ) resistor r=39.7983 //w=0.357 //l=1.11 //layer=li \
 //thickness=0.1 //x=12.58 //y=0 //x2=13.69 //y2=0
r378 (  100 102 ) resistor r=39.7983 //w=0.357 //l=1.11 //layer=li \
 //thickness=0.1 //x=11.47 //y=0 //x2=12.58 //y2=0
r379 (  98 165 ) resistor r=2.94794 //w=0.34 //l=0.085 //layer=li \
 //thickness=0.1 //x=10.78 //y=0 //x2=10.695 //y2=0
r380 (  98 100 ) resistor r=24.7395 //w=0.357 //l=0.69 //layer=li \
 //thickness=0.1 //x=10.78 //y=0 //x2=11.47 //y2=0
r381 (  97 166 ) resistor r=5.4201 //w=0.34 //l=0.17 //layer=li \
 //thickness=0.1 //x=14.26 //y=0 //x2=14.43 //y2=0
r382 (  97 104 ) resistor r=20.437 //w=0.357 //l=0.57 //layer=li \
 //thickness=0.1 //x=14.26 //y=0 //x2=13.69 //y2=0
r383 (  93 165 ) resistor r=4.11603 //w=0.68 //l=0.17 //layer=li \
 //thickness=0.1 //x=10.695 //y=0.17 //x2=10.695 //y2=0
r384 (  93 174 ) resistor r=54.4171 //w=0.187 //l=0.795 //layer=li \
 //thickness=0.1 //x=10.695 //y=0.17 //x2=10.695 //y2=0.965
r385 (  90 164 ) resistor r=5.4201 //w=0.34 //l=0.17 //layer=li \
 //thickness=0.1 //x=9.79 //y=0 //x2=9.62 //y2=0
r386 (  90 92 ) resistor r=20.437 //w=0.357 //l=0.57 //layer=li \
 //thickness=0.1 //x=9.79 //y=0 //x2=10.36 //y2=0
r387 (  89 165 ) resistor r=2.94794 //w=0.34 //l=0.085 //layer=li \
 //thickness=0.1 //x=10.61 //y=0 //x2=10.695 //y2=0
r388 (  89 92 ) resistor r=8.96359 //w=0.357 //l=0.25 //layer=li \
 //thickness=0.1 //x=10.61 //y=0 //x2=10.36 //y2=0
r389 (  84 86 ) resistor r=39.7983 //w=0.357 //l=1.11 //layer=li \
 //thickness=0.1 //x=7.77 //y=0 //x2=8.88 //y2=0
r390 (  82 84 ) resistor r=39.7983 //w=0.357 //l=1.11 //layer=li \
 //thickness=0.1 //x=6.66 //y=0 //x2=7.77 //y2=0
r391 (  80 163 ) resistor r=2.94794 //w=0.34 //l=0.085 //layer=li \
 //thickness=0.1 //x=5.97 //y=0 //x2=5.885 //y2=0
r392 (  80 82 ) resistor r=24.7395 //w=0.357 //l=0.69 //layer=li \
 //thickness=0.1 //x=5.97 //y=0 //x2=6.66 //y2=0
r393 (  79 164 ) resistor r=5.4201 //w=0.34 //l=0.17 //layer=li \
 //thickness=0.1 //x=9.45 //y=0 //x2=9.62 //y2=0
r394 (  79 86 ) resistor r=20.437 //w=0.357 //l=0.57 //layer=li \
 //thickness=0.1 //x=9.45 //y=0 //x2=8.88 //y2=0
r395 (  75 163 ) resistor r=4.11603 //w=0.68 //l=0.17 //layer=li \
 //thickness=0.1 //x=5.885 //y=0.17 //x2=5.885 //y2=0
r396 (  75 173 ) resistor r=54.4171 //w=0.187 //l=0.795 //layer=li \
 //thickness=0.1 //x=5.885 //y=0.17 //x2=5.885 //y2=0.965
r397 (  72 162 ) resistor r=5.4201 //w=0.34 //l=0.17 //layer=li \
 //thickness=0.1 //x=4.98 //y=0 //x2=4.81 //y2=0
r398 (  72 74 ) resistor r=20.437 //w=0.357 //l=0.57 //layer=li \
 //thickness=0.1 //x=4.98 //y=0 //x2=5.55 //y2=0
r399 (  71 163 ) resistor r=2.94794 //w=0.34 //l=0.085 //layer=li \
 //thickness=0.1 //x=5.8 //y=0 //x2=5.885 //y2=0
r400 (  71 74 ) resistor r=8.96359 //w=0.357 //l=0.25 //layer=li \
 //thickness=0.1 //x=5.8 //y=0 //x2=5.55 //y2=0
r401 (  66 68 ) resistor r=39.7983 //w=0.357 //l=1.11 //layer=li \
 //thickness=0.1 //x=2.96 //y=0 //x2=4.07 //y2=0
r402 (  64 66 ) resistor r=39.7983 //w=0.357 //l=1.11 //layer=li \
 //thickness=0.1 //x=1.85 //y=0 //x2=2.96 //y2=0
r403 (  62 161 ) resistor r=2.94794 //w=0.34 //l=0.085 //layer=li \
 //thickness=0.1 //x=1.16 //y=0 //x2=1.075 //y2=0
r404 (  62 64 ) resistor r=24.7395 //w=0.357 //l=0.69 //layer=li \
 //thickness=0.1 //x=1.16 //y=0 //x2=1.85 //y2=0
r405 (  61 162 ) resistor r=5.4201 //w=0.34 //l=0.17 //layer=li \
 //thickness=0.1 //x=4.64 //y=0 //x2=4.81 //y2=0
r406 (  61 68 ) resistor r=20.437 //w=0.357 //l=0.57 //layer=li \
 //thickness=0.1 //x=4.64 //y=0 //x2=4.07 //y2=0
r407 (  57 161 ) resistor r=4.11603 //w=0.68 //l=0.17 //layer=li \
 //thickness=0.1 //x=1.075 //y=0.17 //x2=1.075 //y2=0
r408 (  57 172 ) resistor r=54.4171 //w=0.187 //l=0.795 //layer=li \
 //thickness=0.1 //x=1.075 //y=0.17 //x2=1.075 //y2=0.965
r409 (  53 161 ) resistor r=2.94794 //w=0.34 //l=0.085 //layer=li \
 //thickness=0.1 //x=0.99 //y=0 //x2=1.075 //y2=0
r410 (  53 56 ) resistor r=8.96359 //w=0.357 //l=0.25 //layer=li \
 //thickness=0.1 //x=0.99 //y=0 //x2=0.74 //y2=0
r411 (  49 158 ) resistor r=3.1 //w=0.17 //l=0.51 //layer=mcon //count=3 \
 //x=28.12 //y=0 //x2=28.12 //y2=0
r412 (  47 156 ) resistor r=3.1 //w=0.17 //l=0.51 //layer=mcon //count=3 \
 //x=27.01 //y=0 //x2=27.01 //y2=0
r413 (  47 49 ) resistor r=0.460963 //w=0.301 //l=1.11 //layer=m1 \
 //thickness=0.36 //x=27.01 //y=0 //x2=28.12 //y2=0
r414 (  45 154 ) resistor r=3.1 //w=0.17 //l=0.51 //layer=mcon //count=3 \
 //x=25.9 //y=0 //x2=25.9 //y2=0
r415 (  45 47 ) resistor r=0.460963 //w=0.301 //l=1.11 //layer=m1 \
 //thickness=0.36 //x=25.9 //y=0 //x2=27.01 //y2=0
r416 (  43 146 ) resistor r=3.1 //w=0.17 //l=0.51 //layer=mcon //count=3 \
 //x=24.79 //y=0 //x2=24.79 //y2=0
r417 (  43 45 ) resistor r=0.460963 //w=0.301 //l=1.11 //layer=m1 \
 //thickness=0.36 //x=24.79 //y=0 //x2=25.9 //y2=0
r418 (  41 140 ) resistor r=3.1 //w=0.17 //l=0.51 //layer=mcon //count=3 \
 //x=23.31 //y=0 //x2=23.31 //y2=0
r419 (  41 43 ) resistor r=0.614618 //w=0.301 //l=1.48 //layer=m1 \
 //thickness=0.36 //x=23.31 //y=0 //x2=24.79 //y2=0
r420 (  39 138 ) resistor r=3.1 //w=0.17 //l=0.51 //layer=mcon //count=3 \
 //x=22.2 //y=0 //x2=22.2 //y2=0
r421 (  39 41 ) resistor r=0.460963 //w=0.301 //l=1.11 //layer=m1 \
 //thickness=0.36 //x=22.2 //y=0 //x2=23.31 //y2=0
r422 (  37 136 ) resistor r=3.1 //w=0.17 //l=0.51 //layer=mcon //count=3 \
 //x=21.09 //y=0 //x2=21.09 //y2=0
r423 (  37 39 ) resistor r=0.460963 //w=0.301 //l=1.11 //layer=m1 \
 //thickness=0.36 //x=21.09 //y=0 //x2=22.2 //y2=0
r424 (  35 128 ) resistor r=3.1 //w=0.17 //l=0.51 //layer=mcon //count=3 \
 //x=19.98 //y=0 //x2=19.98 //y2=0
r425 (  35 37 ) resistor r=0.460963 //w=0.301 //l=1.11 //layer=m1 \
 //thickness=0.36 //x=19.98 //y=0 //x2=21.09 //y2=0
r426 (  33 122 ) resistor r=3.1 //w=0.17 //l=0.51 //layer=mcon //count=3 \
 //x=18.5 //y=0 //x2=18.5 //y2=0
r427 (  33 35 ) resistor r=0.614618 //w=0.301 //l=1.48 //layer=m1 \
 //thickness=0.36 //x=18.5 //y=0 //x2=19.98 //y2=0
r428 (  31 120 ) resistor r=3.1 //w=0.17 //l=0.51 //layer=mcon //count=3 \
 //x=17.39 //y=0 //x2=17.39 //y2=0
r429 (  31 33 ) resistor r=0.460963 //w=0.301 //l=1.11 //layer=m1 \
 //thickness=0.36 //x=17.39 //y=0 //x2=18.5 //y2=0
r430 (  29 118 ) resistor r=3.1 //w=0.17 //l=0.51 //layer=mcon //count=3 \
 //x=16.28 //y=0 //x2=16.28 //y2=0
r431 (  29 31 ) resistor r=0.460963 //w=0.301 //l=1.11 //layer=m1 \
 //thickness=0.36 //x=16.28 //y=0 //x2=17.39 //y2=0
r432 (  27 110 ) resistor r=3.1 //w=0.17 //l=0.51 //layer=mcon //count=3 \
 //x=15.17 //y=0 //x2=15.17 //y2=0
r433 (  27 29 ) resistor r=0.460963 //w=0.301 //l=1.11 //layer=m1 \
 //thickness=0.36 //x=15.17 //y=0 //x2=16.28 //y2=0
r434 (  25 104 ) resistor r=3.1 //w=0.17 //l=0.51 //layer=mcon //count=3 \
 //x=13.69 //y=0 //x2=13.69 //y2=0
r435 (  25 27 ) resistor r=0.614618 //w=0.301 //l=1.48 //layer=m1 \
 //thickness=0.36 //x=13.69 //y=0 //x2=15.17 //y2=0
r436 (  23 102 ) resistor r=3.1 //w=0.17 //l=0.51 //layer=mcon //count=3 \
 //x=12.58 //y=0 //x2=12.58 //y2=0
r437 (  23 25 ) resistor r=0.460963 //w=0.301 //l=1.11 //layer=m1 \
 //thickness=0.36 //x=12.58 //y=0 //x2=13.69 //y2=0
r438 (  21 100 ) resistor r=3.1 //w=0.17 //l=0.51 //layer=mcon //count=3 \
 //x=11.47 //y=0 //x2=11.47 //y2=0
r439 (  21 23 ) resistor r=0.460963 //w=0.301 //l=1.11 //layer=m1 \
 //thickness=0.36 //x=11.47 //y=0 //x2=12.58 //y2=0
r440 (  19 92 ) resistor r=3.1 //w=0.17 //l=0.51 //layer=mcon //count=3 \
 //x=10.36 //y=0 //x2=10.36 //y2=0
r441 (  19 21 ) resistor r=0.460963 //w=0.301 //l=1.11 //layer=m1 \
 //thickness=0.36 //x=10.36 //y=0 //x2=11.47 //y2=0
r442 (  17 86 ) resistor r=3.1 //w=0.17 //l=0.51 //layer=mcon //count=3 \
 //x=8.88 //y=0 //x2=8.88 //y2=0
r443 (  17 19 ) resistor r=0.614618 //w=0.301 //l=1.48 //layer=m1 \
 //thickness=0.36 //x=8.88 //y=0 //x2=10.36 //y2=0
r444 (  15 84 ) resistor r=3.1 //w=0.17 //l=0.51 //layer=mcon //count=3 \
 //x=7.77 //y=0 //x2=7.77 //y2=0
r445 (  15 17 ) resistor r=0.460963 //w=0.301 //l=1.11 //layer=m1 \
 //thickness=0.36 //x=7.77 //y=0 //x2=8.88 //y2=0
r446 (  13 82 ) resistor r=3.1 //w=0.17 //l=0.51 //layer=mcon //count=3 \
 //x=6.66 //y=0 //x2=6.66 //y2=0
r447 (  13 15 ) resistor r=0.460963 //w=0.301 //l=1.11 //layer=m1 \
 //thickness=0.36 //x=6.66 //y=0 //x2=7.77 //y2=0
r448 (  11 74 ) resistor r=3.1 //w=0.17 //l=0.51 //layer=mcon //count=3 \
 //x=5.55 //y=0 //x2=5.55 //y2=0
r449 (  11 13 ) resistor r=0.460963 //w=0.301 //l=1.11 //layer=m1 \
 //thickness=0.36 //x=5.55 //y=0 //x2=6.66 //y2=0
r450 (  9 68 ) resistor r=3.1 //w=0.17 //l=0.51 //layer=mcon //count=3 \
 //x=4.07 //y=0 //x2=4.07 //y2=0
r451 (  9 11 ) resistor r=0.614618 //w=0.301 //l=1.48 //layer=m1 \
 //thickness=0.36 //x=4.07 //y=0 //x2=5.55 //y2=0
r452 (  7 66 ) resistor r=3.1 //w=0.17 //l=0.51 //layer=mcon //count=3 \
 //x=2.96 //y=0 //x2=2.96 //y2=0
r453 (  7 9 ) resistor r=0.460963 //w=0.301 //l=1.11 //layer=m1 \
 //thickness=0.36 //x=2.96 //y=0 //x2=4.07 //y2=0
r454 (  5 64 ) resistor r=3.1 //w=0.17 //l=0.51 //layer=mcon //count=3 \
 //x=1.85 //y=0 //x2=1.85 //y2=0
r455 (  5 7 ) resistor r=0.460963 //w=0.301 //l=1.11 //layer=m1 \
 //thickness=0.36 //x=1.85 //y=0 //x2=2.96 //y2=0
r456 (  2 56 ) resistor r=3.1 //w=0.17 //l=0.51 //layer=mcon //count=3 \
 //x=0.74 //y=0 //x2=0.74 //y2=0
r457 (  2 5 ) resistor r=0.460963 //w=0.301 //l=1.11 //layer=m1 \
 //thickness=0.36 //x=0.74 //y=0 //x2=1.85 //y2=0
ends PM_DFFSNRNX1_PCELL\%noxref_1

subckt PM_DFFSNRNX1_PCELL\%noxref_2 ( 49 56 63 73 81 91 107 117 125 135 141 \
 151 161 169 179 185 195 205 213 223 239 249 257 267 283 293 301 314 321 326 \
 331 336 341 346 347 348 349 350 351 352 353 354 355 356 357 358 359 360 361 \
 362 363 364 365 366 367 368 369 )
c331 ( 369 0 ) capacitor c=0.0455453f //x=27.635 //y=5.02
c332 ( 368 0 ) capacitor c=0.0243052f //x=26.755 //y=5.02
c333 ( 367 0 ) capacitor c=0.0243052f //x=25.875 //y=5.02
c334 ( 366 0 ) capacitor c=0.0532177f //x=25.005 //y=5.02
c335 ( 365 0 ) capacitor c=0.0453711f //x=22.825 //y=5.02
c336 ( 364 0 ) capacitor c=0.0243052f //x=21.945 //y=5.02
c337 ( 363 0 ) capacitor c=0.0243052f //x=21.065 //y=5.02
c338 ( 362 0 ) capacitor c=0.0532177f //x=20.195 //y=5.02
c339 ( 361 0 ) capacitor c=0.0453711f //x=18.015 //y=5.02
c340 ( 360 0 ) capacitor c=0.0243052f //x=17.135 //y=5.02
c341 ( 359 0 ) capacitor c=0.024152f //x=16.255 //y=5.02
c342 ( 358 0 ) capacitor c=0.053132f //x=15.385 //y=5.02
c343 ( 357 0 ) capacitor c=0.0452179f //x=13.205 //y=5.02
c344 ( 356 0 ) capacitor c=0.024152f //x=12.325 //y=5.02
c345 ( 355 0 ) capacitor c=0.024152f //x=11.445 //y=5.02
c346 ( 354 0 ) capacitor c=0.053132f //x=10.575 //y=5.02
c347 ( 353 0 ) capacitor c=0.0452179f //x=8.395 //y=5.02
c348 ( 352 0 ) capacitor c=0.024152f //x=7.515 //y=5.02
c349 ( 351 0 ) capacitor c=0.0243529f //x=6.635 //y=5.02
c350 ( 350 0 ) capacitor c=0.0532483f //x=5.765 //y=5.02
c351 ( 349 0 ) capacitor c=0.0454188f //x=3.585 //y=5.02
c352 ( 348 0 ) capacitor c=0.0244314f //x=2.705 //y=5.02
c353 ( 347 0 ) capacitor c=0.0244794f //x=1.825 //y=5.02
c354 ( 346 0 ) capacitor c=0.0533644f //x=0.955 //y=5.02
c355 ( 345 0 ) capacitor c=0.00591168f //x=27.78 //y=7.4
c356 ( 344 0 ) capacitor c=0.00591168f //x=26.9 //y=7.4
c357 ( 343 0 ) capacitor c=0.00591168f //x=26.02 //y=7.4
c358 ( 342 0 ) capacitor c=0.00591168f //x=25.14 //y=7.4
c359 ( 341 0 ) capacitor c=0.159571f //x=24.05 //y=7.4
c360 ( 340 0 ) capacitor c=0.00591168f //x=22.97 //y=7.4
c361 ( 339 0 ) capacitor c=0.00591168f //x=22.09 //y=7.4
c362 ( 338 0 ) capacitor c=0.00591168f //x=21.21 //y=7.4
c363 ( 337 0 ) capacitor c=0.00591168f //x=20.33 //y=7.4
c364 ( 336 0 ) capacitor c=0.15939f //x=19.24 //y=7.4
c365 ( 335 0 ) capacitor c=0.00591168f //x=18.16 //y=7.4
c366 ( 334 0 ) capacitor c=0.00591168f //x=17.28 //y=7.4
c367 ( 333 0 ) capacitor c=0.00591168f //x=16.4 //y=7.4
c368 ( 332 0 ) capacitor c=0.00591168f //x=15.52 //y=7.4
c369 ( 331 0 ) capacitor c=0.159721f //x=14.43 //y=7.4
c370 ( 330 0 ) capacitor c=0.00591168f //x=13.35 //y=7.4
c371 ( 329 0 ) capacitor c=0.00591168f //x=12.47 //y=7.4
c372 ( 328 0 ) capacitor c=0.00591168f //x=11.59 //y=7.4
c373 ( 327 0 ) capacitor c=0.00591168f //x=10.71 //y=7.4
c374 ( 326 0 ) capacitor c=0.159745f //x=9.62 //y=7.4
c375 ( 325 0 ) capacitor c=0.00591168f //x=8.54 //y=7.4
c376 ( 324 0 ) capacitor c=0.00591168f //x=7.66 //y=7.4
c377 ( 323 0 ) capacitor c=0.00591168f //x=6.78 //y=7.4
c378 ( 322 0 ) capacitor c=0.00591168f //x=5.9 //y=7.4
c379 ( 321 0 ) capacitor c=0.159817f //x=4.81 //y=7.4
c380 ( 320 0 ) capacitor c=0.00591168f //x=3.73 //y=7.4
c381 ( 319 0 ) capacitor c=0.00591168f //x=2.85 //y=7.4
c382 ( 318 0 ) capacitor c=0.00591168f //x=1.97 //y=7.4
c383 ( 317 0 ) capacitor c=0.00591168f //x=1.09 //y=7.4
c384 ( 314 0 ) capacitor c=0.272255f //x=28.12 //y=7.4
c385 ( 301 0 ) capacitor c=0.028513f //x=27.695 //y=7.4
c386 ( 293 0 ) capacitor c=0.0287069f //x=26.815 //y=7.4
c387 ( 283 0 ) capacitor c=0.0292055f //x=25.935 //y=7.4
c388 ( 273 0 ) capacitor c=0.0452081f //x=25.055 //y=7.4
c389 ( 267 0 ) capacitor c=0.0418861f //x=23.88 //y=7.4
c390 ( 257 0 ) capacitor c=0.028513f //x=22.885 //y=7.4
c391 ( 249 0 ) capacitor c=0.0287069f //x=22.005 //y=7.4
c392 ( 239 0 ) capacitor c=0.0292055f //x=21.125 //y=7.4
c393 ( 229 0 ) capacitor c=0.0452081f //x=20.245 //y=7.4
c394 ( 223 0 ) capacitor c=0.0418861f //x=19.07 //y=7.4
c395 ( 213 0 ) capacitor c=0.028513f //x=18.075 //y=7.4
c396 ( 205 0 ) capacitor c=0.0288775f //x=17.195 //y=7.4
c397 ( 195 0 ) capacitor c=0.0284966f //x=16.315 //y=7.4
c398 ( 185 0 ) capacitor c=0.0383672f //x=15.435 //y=7.4
c399 ( 179 0 ) capacitor c=0.0394667f //x=14.26 //y=7.4
c400 ( 169 0 ) capacitor c=0.0288488f //x=13.265 //y=7.4
c401 ( 161 0 ) capacitor c=0.0287514f //x=12.385 //y=7.4
c402 ( 151 0 ) capacitor c=0.0284966f //x=11.505 //y=7.4
c403 ( 141 0 ) capacitor c=0.0383672f //x=10.625 //y=7.4
c404 ( 135 0 ) capacitor c=0.0394667f //x=9.45 //y=7.4
c405 ( 125 0 ) capacitor c=0.0288488f //x=8.455 //y=7.4
c406 ( 117 0 ) capacitor c=0.0287505f //x=7.575 //y=7.4
c407 ( 107 0 ) capacitor c=0.0292055f //x=6.695 //y=7.4
c408 ( 97 0 ) capacitor c=0.0452081f //x=5.815 //y=7.4
c409 ( 91 0 ) capacitor c=0.0418861f //x=4.64 //y=7.4
c410 ( 81 0 ) capacitor c=0.028513f //x=3.645 //y=7.4
c411 ( 73 0 ) capacitor c=0.0287069f //x=2.765 //y=7.4
c412 ( 63 0 ) capacitor c=0.0292055f //x=1.885 //y=7.4
c413 ( 56 0 ) capacitor c=0.235022f //x=0.74 //y=7.4
c414 ( 53 0 ) capacitor c=0.0452081f //x=1.005 //y=7.4
c415 ( 49 0 ) capacitor c=1.0243f //x=28.12 //y=7.4
r416 (  312 345 ) resistor r=2.94794 //w=0.34 //l=0.085 //layer=li \
 //thickness=0.1 //x=27.865 //y=7.4 //x2=27.78 //y2=7.4
r417 (  312 314 ) resistor r=9.14286 //w=0.357 //l=0.255 //layer=li \
 //thickness=0.1 //x=27.865 //y=7.4 //x2=28.12 //y2=7.4
r418 (  305 345 ) resistor r=4.11603 //w=0.68 //l=0.17 //layer=li \
 //thickness=0.1 //x=27.78 //y=7.23 //x2=27.78 //y2=7.4
r419 (  305 369 ) resistor r=33.1979 //w=0.187 //l=0.485 //layer=li \
 //thickness=0.1 //x=27.78 //y=7.23 //x2=27.78 //y2=6.745
r420 (  302 344 ) resistor r=2.94794 //w=0.34 //l=0.085 //layer=li \
 //thickness=0.1 //x=26.985 //y=7.4 //x2=26.9 //y2=7.4
r421 (  302 304 ) resistor r=0.896359 //w=0.357 //l=0.025 //layer=li \
 //thickness=0.1 //x=26.985 //y=7.4 //x2=27.01 //y2=7.4
r422 (  301 345 ) resistor r=2.94794 //w=0.34 //l=0.085 //layer=li \
 //thickness=0.1 //x=27.695 //y=7.4 //x2=27.78 //y2=7.4
r423 (  301 304 ) resistor r=24.5602 //w=0.357 //l=0.685 //layer=li \
 //thickness=0.1 //x=27.695 //y=7.4 //x2=27.01 //y2=7.4
r424 (  295 344 ) resistor r=4.11603 //w=0.68 //l=0.17 //layer=li \
 //thickness=0.1 //x=26.9 //y=7.23 //x2=26.9 //y2=7.4
r425 (  295 368 ) resistor r=33.1979 //w=0.187 //l=0.485 //layer=li \
 //thickness=0.1 //x=26.9 //y=7.23 //x2=26.9 //y2=6.745
r426 (  294 343 ) resistor r=2.94794 //w=0.34 //l=0.085 //layer=li \
 //thickness=0.1 //x=26.105 //y=7.4 //x2=26.02 //y2=7.4
r427 (  293 344 ) resistor r=2.94794 //w=0.34 //l=0.085 //layer=li \
 //thickness=0.1 //x=26.815 //y=7.4 //x2=26.9 //y2=7.4
r428 (  293 294 ) resistor r=25.4566 //w=0.357 //l=0.71 //layer=li \
 //thickness=0.1 //x=26.815 //y=7.4 //x2=26.105 //y2=7.4
r429 (  287 343 ) resistor r=4.11603 //w=0.68 //l=0.17 //layer=li \
 //thickness=0.1 //x=26.02 //y=7.23 //x2=26.02 //y2=7.4
r430 (  287 367 ) resistor r=33.1979 //w=0.187 //l=0.485 //layer=li \
 //thickness=0.1 //x=26.02 //y=7.23 //x2=26.02 //y2=6.745
r431 (  284 342 ) resistor r=2.94794 //w=0.34 //l=0.085 //layer=li \
 //thickness=0.1 //x=25.225 //y=7.4 //x2=25.14 //y2=7.4
r432 (  284 286 ) resistor r=24.2017 //w=0.357 //l=0.675 //layer=li \
 //thickness=0.1 //x=25.225 //y=7.4 //x2=25.9 //y2=7.4
r433 (  283 343 ) resistor r=2.94794 //w=0.34 //l=0.085 //layer=li \
 //thickness=0.1 //x=25.935 //y=7.4 //x2=26.02 //y2=7.4
r434 (  283 286 ) resistor r=1.2549 //w=0.357 //l=0.035 //layer=li \
 //thickness=0.1 //x=25.935 //y=7.4 //x2=25.9 //y2=7.4
r435 (  277 342 ) resistor r=4.11603 //w=0.68 //l=0.17 //layer=li \
 //thickness=0.1 //x=25.14 //y=7.23 //x2=25.14 //y2=7.4
r436 (  277 366 ) resistor r=56.4706 //w=0.187 //l=0.825 //layer=li \
 //thickness=0.1 //x=25.14 //y=7.23 //x2=25.14 //y2=6.405
r437 (  274 341 ) resistor r=5.4201 //w=0.34 //l=0.17 //layer=li \
 //thickness=0.1 //x=24.22 //y=7.4 //x2=24.05 //y2=7.4
r438 (  274 276 ) resistor r=20.437 //w=0.357 //l=0.57 //layer=li \
 //thickness=0.1 //x=24.22 //y=7.4 //x2=24.79 //y2=7.4
r439 (  273 342 ) resistor r=2.94794 //w=0.34 //l=0.085 //layer=li \
 //thickness=0.1 //x=25.055 //y=7.4 //x2=25.14 //y2=7.4
r440 (  273 276 ) resistor r=9.5014 //w=0.357 //l=0.265 //layer=li \
 //thickness=0.1 //x=25.055 //y=7.4 //x2=24.79 //y2=7.4
r441 (  268 340 ) resistor r=2.94794 //w=0.34 //l=0.085 //layer=li \
 //thickness=0.1 //x=23.055 //y=7.4 //x2=22.97 //y2=7.4
r442 (  268 270 ) resistor r=9.14286 //w=0.357 //l=0.255 //layer=li \
 //thickness=0.1 //x=23.055 //y=7.4 //x2=23.31 //y2=7.4
r443 (  267 341 ) resistor r=5.4201 //w=0.34 //l=0.17 //layer=li \
 //thickness=0.1 //x=23.88 //y=7.4 //x2=24.05 //y2=7.4
r444 (  267 270 ) resistor r=20.437 //w=0.357 //l=0.57 //layer=li \
 //thickness=0.1 //x=23.88 //y=7.4 //x2=23.31 //y2=7.4
r445 (  261 340 ) resistor r=4.11603 //w=0.68 //l=0.17 //layer=li \
 //thickness=0.1 //x=22.97 //y=7.23 //x2=22.97 //y2=7.4
r446 (  261 365 ) resistor r=33.1979 //w=0.187 //l=0.485 //layer=li \
 //thickness=0.1 //x=22.97 //y=7.23 //x2=22.97 //y2=6.745
r447 (  258 339 ) resistor r=2.94794 //w=0.34 //l=0.085 //layer=li \
 //thickness=0.1 //x=22.175 //y=7.4 //x2=22.09 //y2=7.4
r448 (  258 260 ) resistor r=0.896359 //w=0.357 //l=0.025 //layer=li \
 //thickness=0.1 //x=22.175 //y=7.4 //x2=22.2 //y2=7.4
r449 (  257 340 ) resistor r=2.94794 //w=0.34 //l=0.085 //layer=li \
 //thickness=0.1 //x=22.885 //y=7.4 //x2=22.97 //y2=7.4
r450 (  257 260 ) resistor r=24.5602 //w=0.357 //l=0.685 //layer=li \
 //thickness=0.1 //x=22.885 //y=7.4 //x2=22.2 //y2=7.4
r451 (  251 339 ) resistor r=4.11603 //w=0.68 //l=0.17 //layer=li \
 //thickness=0.1 //x=22.09 //y=7.23 //x2=22.09 //y2=7.4
r452 (  251 364 ) resistor r=33.1979 //w=0.187 //l=0.485 //layer=li \
 //thickness=0.1 //x=22.09 //y=7.23 //x2=22.09 //y2=6.745
r453 (  250 338 ) resistor r=2.94794 //w=0.34 //l=0.085 //layer=li \
 //thickness=0.1 //x=21.295 //y=7.4 //x2=21.21 //y2=7.4
r454 (  249 339 ) resistor r=2.94794 //w=0.34 //l=0.085 //layer=li \
 //thickness=0.1 //x=22.005 //y=7.4 //x2=22.09 //y2=7.4
r455 (  249 250 ) resistor r=25.4566 //w=0.357 //l=0.71 //layer=li \
 //thickness=0.1 //x=22.005 //y=7.4 //x2=21.295 //y2=7.4
r456 (  243 338 ) resistor r=4.11603 //w=0.68 //l=0.17 //layer=li \
 //thickness=0.1 //x=21.21 //y=7.23 //x2=21.21 //y2=7.4
r457 (  243 363 ) resistor r=33.1979 //w=0.187 //l=0.485 //layer=li \
 //thickness=0.1 //x=21.21 //y=7.23 //x2=21.21 //y2=6.745
r458 (  240 337 ) resistor r=2.94794 //w=0.34 //l=0.085 //layer=li \
 //thickness=0.1 //x=20.415 //y=7.4 //x2=20.33 //y2=7.4
r459 (  240 242 ) resistor r=24.2017 //w=0.357 //l=0.675 //layer=li \
 //thickness=0.1 //x=20.415 //y=7.4 //x2=21.09 //y2=7.4
r460 (  239 338 ) resistor r=2.94794 //w=0.34 //l=0.085 //layer=li \
 //thickness=0.1 //x=21.125 //y=7.4 //x2=21.21 //y2=7.4
r461 (  239 242 ) resistor r=1.2549 //w=0.357 //l=0.035 //layer=li \
 //thickness=0.1 //x=21.125 //y=7.4 //x2=21.09 //y2=7.4
r462 (  233 337 ) resistor r=4.11603 //w=0.68 //l=0.17 //layer=li \
 //thickness=0.1 //x=20.33 //y=7.23 //x2=20.33 //y2=7.4
r463 (  233 362 ) resistor r=56.4706 //w=0.187 //l=0.825 //layer=li \
 //thickness=0.1 //x=20.33 //y=7.23 //x2=20.33 //y2=6.405
r464 (  230 336 ) resistor r=5.4201 //w=0.34 //l=0.17 //layer=li \
 //thickness=0.1 //x=19.41 //y=7.4 //x2=19.24 //y2=7.4
r465 (  230 232 ) resistor r=20.437 //w=0.357 //l=0.57 //layer=li \
 //thickness=0.1 //x=19.41 //y=7.4 //x2=19.98 //y2=7.4
r466 (  229 337 ) resistor r=2.94794 //w=0.34 //l=0.085 //layer=li \
 //thickness=0.1 //x=20.245 //y=7.4 //x2=20.33 //y2=7.4
r467 (  229 232 ) resistor r=9.5014 //w=0.357 //l=0.265 //layer=li \
 //thickness=0.1 //x=20.245 //y=7.4 //x2=19.98 //y2=7.4
r468 (  224 335 ) resistor r=2.94794 //w=0.34 //l=0.085 //layer=li \
 //thickness=0.1 //x=18.245 //y=7.4 //x2=18.16 //y2=7.4
r469 (  224 226 ) resistor r=9.14286 //w=0.357 //l=0.255 //layer=li \
 //thickness=0.1 //x=18.245 //y=7.4 //x2=18.5 //y2=7.4
r470 (  223 336 ) resistor r=5.4201 //w=0.34 //l=0.17 //layer=li \
 //thickness=0.1 //x=19.07 //y=7.4 //x2=19.24 //y2=7.4
r471 (  223 226 ) resistor r=20.437 //w=0.357 //l=0.57 //layer=li \
 //thickness=0.1 //x=19.07 //y=7.4 //x2=18.5 //y2=7.4
r472 (  217 335 ) resistor r=4.11603 //w=0.68 //l=0.17 //layer=li \
 //thickness=0.1 //x=18.16 //y=7.23 //x2=18.16 //y2=7.4
r473 (  217 361 ) resistor r=33.1979 //w=0.187 //l=0.485 //layer=li \
 //thickness=0.1 //x=18.16 //y=7.23 //x2=18.16 //y2=6.745
r474 (  214 334 ) resistor r=2.94794 //w=0.34 //l=0.085 //layer=li \
 //thickness=0.1 //x=17.365 //y=7.4 //x2=17.28 //y2=7.4
r475 (  214 216 ) resistor r=0.896359 //w=0.357 //l=0.025 //layer=li \
 //thickness=0.1 //x=17.365 //y=7.4 //x2=17.39 //y2=7.4
r476 (  213 335 ) resistor r=2.94794 //w=0.34 //l=0.085 //layer=li \
 //thickness=0.1 //x=18.075 //y=7.4 //x2=18.16 //y2=7.4
r477 (  213 216 ) resistor r=24.5602 //w=0.357 //l=0.685 //layer=li \
 //thickness=0.1 //x=18.075 //y=7.4 //x2=17.39 //y2=7.4
r478 (  207 334 ) resistor r=4.11603 //w=0.68 //l=0.17 //layer=li \
 //thickness=0.1 //x=17.28 //y=7.23 //x2=17.28 //y2=7.4
r479 (  207 360 ) resistor r=33.1979 //w=0.187 //l=0.485 //layer=li \
 //thickness=0.1 //x=17.28 //y=7.23 //x2=17.28 //y2=6.745
r480 (  206 333 ) resistor r=2.94794 //w=0.34 //l=0.085 //layer=li \
 //thickness=0.1 //x=16.485 //y=7.4 //x2=16.4 //y2=7.4
r481 (  205 334 ) resistor r=2.94794 //w=0.34 //l=0.085 //layer=li \
 //thickness=0.1 //x=17.195 //y=7.4 //x2=17.28 //y2=7.4
r482 (  205 206 ) resistor r=25.4566 //w=0.357 //l=0.71 //layer=li \
 //thickness=0.1 //x=17.195 //y=7.4 //x2=16.485 //y2=7.4
r483 (  199 333 ) resistor r=4.11603 //w=0.68 //l=0.17 //layer=li \
 //thickness=0.1 //x=16.4 //y=7.23 //x2=16.4 //y2=7.4
r484 (  199 359 ) resistor r=33.1979 //w=0.187 //l=0.485 //layer=li \
 //thickness=0.1 //x=16.4 //y=7.23 //x2=16.4 //y2=6.745
r485 (  196 332 ) resistor r=2.94794 //w=0.34 //l=0.085 //layer=li \
 //thickness=0.1 //x=15.605 //y=7.4 //x2=15.52 //y2=7.4
r486 (  196 198 ) resistor r=24.2017 //w=0.357 //l=0.675 //layer=li \
 //thickness=0.1 //x=15.605 //y=7.4 //x2=16.28 //y2=7.4
r487 (  195 333 ) resistor r=2.94794 //w=0.34 //l=0.085 //layer=li \
 //thickness=0.1 //x=16.315 //y=7.4 //x2=16.4 //y2=7.4
r488 (  195 198 ) resistor r=1.2549 //w=0.357 //l=0.035 //layer=li \
 //thickness=0.1 //x=16.315 //y=7.4 //x2=16.28 //y2=7.4
r489 (  189 332 ) resistor r=4.11603 //w=0.68 //l=0.17 //layer=li \
 //thickness=0.1 //x=15.52 //y=7.23 //x2=15.52 //y2=7.4
r490 (  189 358 ) resistor r=56.4706 //w=0.187 //l=0.825 //layer=li \
 //thickness=0.1 //x=15.52 //y=7.23 //x2=15.52 //y2=6.405