// File: dffsnx1_pcell.spi.pex
// Created: Tue Oct 15 15:56:17 2024
// Program "Calibre xRC"
// Version "v2023.2_27.15"
// Nominal Temperature: 30C
// Circuit Temperature: 30C
// 
simulator lang=spectre
subckt PM_DFFSNX1_PCELL\%noxref_1 ( 41 45 48 53 61 67 77 83 93 99 105 113 121 \
 136 140 143 146 149 151 153 154 155 156 157 158 )
c285 ( 158 0 ) capacitor c=0.0226075f //x=20.495 //y=0.875
c286 ( 157 0 ) capacitor c=0.0207407f //x=17.27 //y=0.865
c287 ( 156 0 ) capacitor c=0.0207407f //x=13.94 //y=0.865
c288 ( 155 0 ) capacitor c=0.0226205f //x=9.025 //y=0.875
c289 ( 154 0 ) capacitor c=0.0226323f //x=4.215 //y=0.875
c290 ( 153 0 ) capacitor c=0.0208404f //x=0.99 //y=0.865
c291 ( 152 0 ) capacitor c=0.00440144f //x=20.685 //y=0
c292 ( 151 0 ) capacitor c=0.105142f //x=19.61 //y=0
c293 ( 150 0 ) capacitor c=0.00440095f //x=17.46 //y=0
c294 ( 149 0 ) capacitor c=0.106174f //x=16.28 //y=0
c295 ( 148 0 ) capacitor c=0.00440095f //x=14.06 //y=0
c296 ( 146 0 ) capacitor c=0.108248f //x=12.95 //y=0
c297 ( 145 0 ) capacitor c=0.00440144f //x=9.25 //y=0
c298 ( 143 0 ) capacitor c=0.108235f //x=8.14 //y=0
c299 ( 142 0 ) capacitor c=0.00440144f //x=4.44 //y=0
c300 ( 140 0 ) capacitor c=0.105313f //x=3.33 //y=0
c301 ( 139 0 ) capacitor c=0.00440095f //x=1.18 //y=0
c302 ( 136 0 ) capacitor c=0.322261f //x=23.68 //y=0
c303 ( 121 0 ) capacitor c=0.0339325f //x=20.6 //y=0
c304 ( 113 0 ) capacitor c=0.0718026f //x=19.44 //y=0
c305 ( 105 0 ) capacitor c=0.0388888f //x=17.375 //y=0
c306 ( 99 0 ) capacitor c=0.0718026f //x=16.11 //y=0
c307 ( 93 0 ) capacitor c=0.0388888f //x=14.045 //y=0
c308 ( 83 0 ) capacitor c=0.133402f //x=12.78 //y=0
c309 ( 77 0 ) capacitor c=0.0339482f //x=9.13 //y=0
c310 ( 67 0 ) capacitor c=0.133515f //x=7.97 //y=0
c311 ( 61 0 ) capacitor c=0.0339482f //x=4.32 //y=0
c312 ( 53 0 ) capacitor c=0.0720582f //x=3.16 //y=0
c313 ( 48 0 ) capacitor c=0.179262f //x=0.74 //y=0
c314 ( 45 0 ) capacitor c=0.0426751f //x=1.095 //y=0
c315 ( 41 0 ) capacitor c=0.776195f //x=23.68 //y=0
r316 (  134 136 ) resistor r=39.7983 //w=0.357 //l=1.11 //layer=li \
 //thickness=0.1 //x=22.57 //y=0 //x2=23.68 //y2=0
r317 (  132 134 ) resistor r=39.7983 //w=0.357 //l=1.11 //layer=li \
 //thickness=0.1 //x=21.46 //y=0 //x2=22.57 //y2=0
r318 (  130 152 ) resistor r=2.94794 //w=0.34 //l=0.085 //layer=li \
 //thickness=0.1 //x=20.77 //y=0 //x2=20.685 //y2=0
r319 (  130 132 ) resistor r=24.7395 //w=0.357 //l=0.69 //layer=li \
 //thickness=0.1 //x=20.77 //y=0 //x2=21.46 //y2=0
r320 (  125 152 ) resistor r=4.11603 //w=0.68 //l=0.17 //layer=li \
 //thickness=0.1 //x=20.685 //y=0.17 //x2=20.685 //y2=0
r321 (  125 158 ) resistor r=54.4171 //w=0.187 //l=0.795 //layer=li \
 //thickness=0.1 //x=20.685 //y=0.17 //x2=20.685 //y2=0.965
r322 (  122 151 ) resistor r=5.4201 //w=0.34 //l=0.17 //layer=li \
 //thickness=0.1 //x=19.78 //y=0 //x2=19.61 //y2=0
r323 (  122 124 ) resistor r=20.437 //w=0.357 //l=0.57 //layer=li \
 //thickness=0.1 //x=19.78 //y=0 //x2=20.35 //y2=0
r324 (  121 152 ) resistor r=2.94794 //w=0.34 //l=0.085 //layer=li \
 //thickness=0.1 //x=20.6 //y=0 //x2=20.685 //y2=0
r325 (  121 124 ) resistor r=8.96359 //w=0.357 //l=0.25 //layer=li \
 //thickness=0.1 //x=20.6 //y=0 //x2=20.35 //y2=0
r326 (  116 118 ) resistor r=39.7983 //w=0.357 //l=1.11 //layer=li \
 //thickness=0.1 //x=17.76 //y=0 //x2=18.87 //y2=0
r327 (  114 150 ) resistor r=2.94794 //w=0.34 //l=0.085 //layer=li \
 //thickness=0.1 //x=17.545 //y=0 //x2=17.46 //y2=0
r328 (  114 116 ) resistor r=7.70868 //w=0.357 //l=0.215 //layer=li \
 //thickness=0.1 //x=17.545 //y=0 //x2=17.76 //y2=0
r329 (  113 151 ) resistor r=5.4201 //w=0.34 //l=0.17 //layer=li \
 //thickness=0.1 //x=19.44 //y=0 //x2=19.61 //y2=0
r330 (  113 118 ) resistor r=20.437 //w=0.357 //l=0.57 //layer=li \
 //thickness=0.1 //x=19.44 //y=0 //x2=18.87 //y2=0
r331 (  109 150 ) resistor r=4.11603 //w=0.68 //l=0.17 //layer=li \
 //thickness=0.1 //x=17.46 //y=0.17 //x2=17.46 //y2=0
r332 (  109 157 ) resistor r=53.7326 //w=0.187 //l=0.785 //layer=li \
 //thickness=0.1 //x=17.46 //y=0.17 //x2=17.46 //y2=0.955
r333 (  106 149 ) resistor r=5.4201 //w=0.34 //l=0.17 //layer=li \
 //thickness=0.1 //x=16.45 //y=0 //x2=16.28 //y2=0
r334 (  106 108 ) resistor r=7.17087 //w=0.357 //l=0.2 //layer=li \
 //thickness=0.1 //x=16.45 //y=0 //x2=16.65 //y2=0
r335 (  105 150 ) resistor r=2.94794 //w=0.34 //l=0.085 //layer=li \
 //thickness=0.1 //x=17.375 //y=0 //x2=17.46 //y2=0
r336 (  105 108 ) resistor r=25.9944 //w=0.357 //l=0.725 //layer=li \
 //thickness=0.1 //x=17.375 //y=0 //x2=16.65 //y2=0
r337 (  100 148 ) resistor r=2.94794 //w=0.34 //l=0.085 //layer=li \
 //thickness=0.1 //x=14.215 //y=0 //x2=14.13 //y2=0
r338 (  100 102 ) resistor r=34.2409 //w=0.357 //l=0.955 //layer=li \
 //thickness=0.1 //x=14.215 //y=0 //x2=15.17 //y2=0
r339 (  99 149 ) resistor r=5.4201 //w=0.34 //l=0.17 //layer=li \
 //thickness=0.1 //x=16.11 //y=0 //x2=16.28 //y2=0
r340 (  99 102 ) resistor r=33.7031 //w=0.357 //l=0.94 //layer=li \
 //thickness=0.1 //x=16.11 //y=0 //x2=15.17 //y2=0
r341 (  95 148 ) resistor r=4.11603 //w=0.68 //l=0.17 //layer=li \
 //thickness=0.1 //x=14.13 //y=0.17 //x2=14.13 //y2=0
r342 (  95 156 ) resistor r=53.7326 //w=0.187 //l=0.785 //layer=li \
 //thickness=0.1 //x=14.13 //y=0.17 //x2=14.13 //y2=0.955
r343 (  94 146 ) resistor r=5.4201 //w=0.34 //l=0.17 //layer=li \
 //thickness=0.1 //x=13.12 //y=0 //x2=12.95 //y2=0
r344 (  93 148 ) resistor r=2.94794 //w=0.34 //l=0.085 //layer=li \
 //thickness=0.1 //x=14.045 //y=0 //x2=14.13 //y2=0
r345 (  93 94 ) resistor r=33.1653 //w=0.357 //l=0.925 //layer=li \
 //thickness=0.1 //x=14.045 //y=0 //x2=13.12 //y2=0
r346 (  88 90 ) resistor r=39.7983 //w=0.357 //l=1.11 //layer=li \
 //thickness=0.1 //x=11.47 //y=0 //x2=12.58 //y2=0
r347 (  86 88 ) resistor r=39.7983 //w=0.357 //l=1.11 //layer=li \
 //thickness=0.1 //x=10.36 //y=0 //x2=11.47 //y2=0
r348 (  84 145 ) resistor r=2.94794 //w=0.34 //l=0.085 //layer=li \
 //thickness=0.1 //x=9.3 //y=0 //x2=9.215 //y2=0
r349 (  84 86 ) resistor r=38.0056 //w=0.357 //l=1.06 //layer=li \
 //thickness=0.1 //x=9.3 //y=0 //x2=10.36 //y2=0
r350 (  83 146 ) resistor r=5.4201 //w=0.34 //l=0.17 //layer=li \
 //thickness=0.1 //x=12.78 //y=0 //x2=12.95 //y2=0
r351 (  83 90 ) resistor r=7.17087 //w=0.357 //l=0.2 //layer=li \
 //thickness=0.1 //x=12.78 //y=0 //x2=12.58 //y2=0
r352 (  79 145 ) resistor r=4.11603 //w=0.68 //l=0.17 //layer=li \
 //thickness=0.1 //x=9.215 //y=0.17 //x2=9.215 //y2=0
r353 (  79 155 ) resistor r=54.4171 //w=0.187 //l=0.795 //layer=li \
 //thickness=0.1 //x=9.215 //y=0.17 //x2=9.215 //y2=0.965
r354 (  78 143 ) resistor r=5.4201 //w=0.34 //l=0.17 //layer=li \
 //thickness=0.1 //x=8.31 //y=0 //x2=8.14 //y2=0
r355 (  77 145 ) resistor r=2.94794 //w=0.34 //l=0.085 //layer=li \
 //thickness=0.1 //x=9.13 //y=0 //x2=9.215 //y2=0
r356 (  77 78 ) resistor r=29.4006 //w=0.357 //l=0.82 //layer=li \
 //thickness=0.1 //x=9.13 //y=0 //x2=8.31 //y2=0
r357 (  72 74 ) resistor r=39.7983 //w=0.357 //l=1.11 //layer=li \
 //thickness=0.1 //x=6.66 //y=0 //x2=7.77 //y2=0
r358 (  70 72 ) resistor r=39.7983 //w=0.357 //l=1.11 //layer=li \
 //thickness=0.1 //x=5.55 //y=0 //x2=6.66 //y2=0
r359 (  68 142 ) resistor r=2.94794 //w=0.34 //l=0.085 //layer=li \
 //thickness=0.1 //x=4.49 //y=0 //x2=4.405 //y2=0
r360 (  68 70 ) resistor r=38.0056 //w=0.357 //l=1.06 //layer=li \
 //thickness=0.1 //x=4.49 //y=0 //x2=5.55 //y2=0
r361 (  67 143 ) resistor r=5.4201 //w=0.34 //l=0.17 //layer=li \
 //thickness=0.1 //x=7.97 //y=0 //x2=8.14 //y2=0
r362 (  67 74 ) resistor r=7.17087 //w=0.357 //l=0.2 //layer=li \
 //thickness=0.1 //x=7.97 //y=0 //x2=7.77 //y2=0
r363 (  63 142 ) resistor r=4.11603 //w=0.68 //l=0.17 //layer=li \
 //thickness=0.1 //x=4.405 //y=0.17 //x2=4.405 //y2=0
r364 (  63 154 ) resistor r=54.4171 //w=0.187 //l=0.795 //layer=li \
 //thickness=0.1 //x=4.405 //y=0.17 //x2=4.405 //y2=0.965
r365 (  62 140 ) resistor r=5.4201 //w=0.34 //l=0.17 //layer=li \
 //thickness=0.1 //x=3.5 //y=0 //x2=3.33 //y2=0
r366 (  61 142 ) resistor r=2.94794 //w=0.34 //l=0.085 //layer=li \
 //thickness=0.1 //x=4.32 //y=0 //x2=4.405 //y2=0
r367 (  61 62 ) resistor r=29.4006 //w=0.357 //l=0.82 //layer=li \
 //thickness=0.1 //x=4.32 //y=0 //x2=3.5 //y2=0
r368 (  56 58 ) resistor r=39.7983 //w=0.357 //l=1.11 //layer=li \
 //thickness=0.1 //x=1.85 //y=0 //x2=2.96 //y2=0
r369 (  54 139 ) resistor r=2.94794 //w=0.34 //l=0.085 //layer=li \
 //thickness=0.1 //x=1.265 //y=0 //x2=1.18 //y2=0
r370 (  54 56 ) resistor r=20.9748 //w=0.357 //l=0.585 //layer=li \
 //thickness=0.1 //x=1.265 //y=0 //x2=1.85 //y2=0
r371 (  53 140 ) resistor r=5.4201 //w=0.34 //l=0.17 //layer=li \
 //thickness=0.1 //x=3.16 //y=0 //x2=3.33 //y2=0
r372 (  53 58 ) resistor r=7.17087 //w=0.357 //l=0.2 //layer=li \
 //thickness=0.1 //x=3.16 //y=0 //x2=2.96 //y2=0
r373 (  49 139 ) resistor r=4.11603 //w=0.68 //l=0.17 //layer=li \
 //thickness=0.1 //x=1.18 //y=0.17 //x2=1.18 //y2=0
r374 (  49 153 ) resistor r=53.7326 //w=0.187 //l=0.785 //layer=li \
 //thickness=0.1 //x=1.18 //y=0.17 //x2=1.18 //y2=0.955
r375 (  45 139 ) resistor r=2.94794 //w=0.34 //l=0.085 //layer=li \
 //thickness=0.1 //x=1.095 //y=0 //x2=1.18 //y2=0
r376 (  45 48 ) resistor r=12.7283 //w=0.357 //l=0.355 //layer=li \
 //thickness=0.1 //x=1.095 //y=0 //x2=0.74 //y2=0
r377 (  41 136 ) resistor r=3.1 //w=0.17 //l=0.51 //layer=mcon //count=3 \
 //x=23.68 //y=0 //x2=23.68 //y2=0
r378 (  39 134 ) resistor r=3.1 //w=0.17 //l=0.51 //layer=mcon //count=3 \
 //x=22.57 //y=0 //x2=22.57 //y2=0
r379 (  39 41 ) resistor r=0.460963 //w=0.301 //l=1.11 //layer=m1 \
 //thickness=0.36 //x=22.57 //y=0 //x2=23.68 //y2=0
r380 (  37 132 ) resistor r=3.1 //w=0.17 //l=0.51 //layer=mcon //count=3 \
 //x=21.46 //y=0 //x2=21.46 //y2=0
r381 (  37 39 ) resistor r=0.460963 //w=0.301 //l=1.11 //layer=m1 \
 //thickness=0.36 //x=21.46 //y=0 //x2=22.57 //y2=0
r382 (  35 124 ) resistor r=3.1 //w=0.17 //l=0.51 //layer=mcon //count=3 \
 //x=20.35 //y=0 //x2=20.35 //y2=0
r383 (  35 37 ) resistor r=0.460963 //w=0.301 //l=1.11 //layer=m1 \
 //thickness=0.36 //x=20.35 //y=0 //x2=21.46 //y2=0
r384 (  33 118 ) resistor r=3.1 //w=0.17 //l=0.51 //layer=mcon //count=3 \
 //x=18.87 //y=0 //x2=18.87 //y2=0
r385 (  33 35 ) resistor r=0.614618 //w=0.301 //l=1.48 //layer=m1 \
 //thickness=0.36 //x=18.87 //y=0 //x2=20.35 //y2=0
r386 (  31 116 ) resistor r=3.1 //w=0.17 //l=0.51 //layer=mcon //count=3 \
 //x=17.76 //y=0 //x2=17.76 //y2=0
r387 (  31 33 ) resistor r=0.460963 //w=0.301 //l=1.11 //layer=m1 \
 //thickness=0.36 //x=17.76 //y=0 //x2=18.87 //y2=0
r388 (  29 108 ) resistor r=3.1 //w=0.17 //l=0.51 //layer=mcon //count=3 \
 //x=16.65 //y=0 //x2=16.65 //y2=0
r389 (  29 31 ) resistor r=0.460963 //w=0.301 //l=1.11 //layer=m1 \
 //thickness=0.36 //x=16.65 //y=0 //x2=17.76 //y2=0
r390 (  27 102 ) resistor r=3.1 //w=0.17 //l=0.51 //layer=mcon //count=3 \
 //x=15.17 //y=0 //x2=15.17 //y2=0
r391 (  27 29 ) resistor r=0.614618 //w=0.301 //l=1.48 //layer=m1 \
 //thickness=0.36 //x=15.17 //y=0 //x2=16.65 //y2=0
r392 (  25 148 ) resistor r=3.1 //w=0.17 //l=0.51 //layer=mcon //count=3 \
 //x=14.06 //y=0 //x2=14.06 //y2=0
r393 (  25 27 ) resistor r=0.460963 //w=0.301 //l=1.11 //layer=m1 \
 //thickness=0.36 //x=14.06 //y=0 //x2=15.17 //y2=0
r394 (  23 90 ) resistor r=3.1 //w=0.17 //l=0.51 //layer=mcon //count=3 \
 //x=12.58 //y=0 //x2=12.58 //y2=0
r395 (  23 25 ) resistor r=0.614618 //w=0.301 //l=1.48 //layer=m1 \
 //thickness=0.36 //x=12.58 //y=0 //x2=14.06 //y2=0
r396 (  21 88 ) resistor r=3.1 //w=0.17 //l=0.51 //layer=mcon //count=3 \
 //x=11.47 //y=0 //x2=11.47 //y2=0
r397 (  21 23 ) resistor r=0.460963 //w=0.301 //l=1.11 //layer=m1 \
 //thickness=0.36 //x=11.47 //y=0 //x2=12.58 //y2=0
r398 (  19 86 ) resistor r=3.1 //w=0.17 //l=0.51 //layer=mcon //count=3 \
 //x=10.36 //y=0 //x2=10.36 //y2=0
r399 (  19 21 ) resistor r=0.460963 //w=0.301 //l=1.11 //layer=m1 \
 //thickness=0.36 //x=10.36 //y=0 //x2=11.47 //y2=0
r400 (  17 145 ) resistor r=3.1 //w=0.17 //l=0.51 //layer=mcon //count=3 \
 //x=9.25 //y=0 //x2=9.25 //y2=0
r401 (  17 19 ) resistor r=0.460963 //w=0.301 //l=1.11 //layer=m1 \
 //thickness=0.36 //x=9.25 //y=0 //x2=10.36 //y2=0
r402 (  15 74 ) resistor r=3.1 //w=0.17 //l=0.51 //layer=mcon //count=3 \
 //x=7.77 //y=0 //x2=7.77 //y2=0
r403 (  15 17 ) resistor r=0.614618 //w=0.301 //l=1.48 //layer=m1 \
 //thickness=0.36 //x=7.77 //y=0 //x2=9.25 //y2=0
r404 (  13 72 ) resistor r=3.1 //w=0.17 //l=0.51 //layer=mcon //count=3 \
 //x=6.66 //y=0 //x2=6.66 //y2=0
r405 (  13 15 ) resistor r=0.460963 //w=0.301 //l=1.11 //layer=m1 \
 //thickness=0.36 //x=6.66 //y=0 //x2=7.77 //y2=0
r406 (  11 70 ) resistor r=3.1 //w=0.17 //l=0.51 //layer=mcon //count=3 \
 //x=5.55 //y=0 //x2=5.55 //y2=0
r407 (  11 13 ) resistor r=0.460963 //w=0.301 //l=1.11 //layer=m1 \
 //thickness=0.36 //x=5.55 //y=0 //x2=6.66 //y2=0
r408 (  9 142 ) resistor r=3.1 //w=0.17 //l=0.51 //layer=mcon //count=3 \
 //x=4.44 //y=0 //x2=4.44 //y2=0
r409 (  9 11 ) resistor r=0.460963 //w=0.301 //l=1.11 //layer=m1 \
 //thickness=0.36 //x=4.44 //y=0 //x2=5.55 //y2=0
r410 (  7 58 ) resistor r=3.1 //w=0.17 //l=0.51 //layer=mcon //count=3 \
 //x=2.96 //y=0 //x2=2.96 //y2=0
r411 (  7 9 ) resistor r=0.614618 //w=0.301 //l=1.48 //layer=m1 \
 //thickness=0.36 //x=2.96 //y=0 //x2=4.44 //y2=0
r412 (  5 56 ) resistor r=3.1 //w=0.17 //l=0.51 //layer=mcon //count=3 \
 //x=1.85 //y=0 //x2=1.85 //y2=0
r413 (  5 7 ) resistor r=0.460963 //w=0.301 //l=1.11 //layer=m1 \
 //thickness=0.36 //x=1.85 //y=0 //x2=2.96 //y2=0
r414 (  2 48 ) resistor r=3.1 //w=0.17 //l=0.51 //layer=mcon //count=3 \
 //x=0.74 //y=0 //x2=0.74 //y2=0
r415 (  2 5 ) resistor r=0.460963 //w=0.301 //l=1.11 //layer=m1 \
 //thickness=0.36 //x=0.74 //y=0 //x2=1.85 //y2=0
ends PM_DFFSNX1_PCELL\%noxref_1

subckt PM_DFFSNX1_PCELL\%noxref_2 ( 41 53 61 71 77 85 93 103 113 119 127 135 \
 145 155 161 169 179 189 193 203 213 235 245 253 266 270 273 279 285 289 294 \
 299 300 301 302 303 304 305 306 307 308 309 310 311 312 313 314 315 316 317 \
 318 319 )
c303 ( 319 0 ) capacitor c=0.0455453f //x=23.195 //y=5.02
c304 ( 318 0 ) capacitor c=0.0243052f //x=22.315 //y=5.02
c305 ( 317 0 ) capacitor c=0.0243052f //x=21.435 //y=5.02
c306 ( 316 0 ) capacitor c=0.0532751f //x=20.565 //y=5.02
c307 ( 315 0 ) capacitor c=0.0382117f //x=18.685 //y=5.02
c308 ( 314 0 ) capacitor c=0.024147f //x=17.805 //y=5.02
c309 ( 313 0 ) capacitor c=0.0493657f //x=16.935 //y=5.02
c310 ( 312 0 ) capacitor c=0.0381505f //x=15.355 //y=5.02
c311 ( 311 0 ) capacitor c=0.0240074f //x=14.475 //y=5.02
c312 ( 310 0 ) capacitor c=0.049209f //x=13.605 //y=5.02
c313 ( 309 0 ) capacitor c=0.0452179f //x=11.725 //y=5.02
c314 ( 308 0 ) capacitor c=0.024152f //x=10.845 //y=5.02
c315 ( 307 0 ) capacitor c=0.024152f //x=9.965 //y=5.02
c316 ( 306 0 ) capacitor c=0.053132f //x=9.095 //y=5.02
c317 ( 305 0 ) capacitor c=0.0452179f //x=6.915 //y=5.02
c318 ( 304 0 ) capacitor c=0.024152f //x=6.035 //y=5.02
c319 ( 303 0 ) capacitor c=0.02424f //x=5.155 //y=5.02
c320 ( 302 0 ) capacitor c=0.0532367f //x=4.285 //y=5.02
c321 ( 301 0 ) capacitor c=0.0381505f //x=2.405 //y=5.02
c322 ( 300 0 ) capacitor c=0.024246f //x=1.525 //y=5.02
c323 ( 299 0 ) capacitor c=0.053196f //x=0.655 //y=5.02
c324 ( 298 0 ) capacitor c=0.00591168f //x=23.34 //y=7.4
c325 ( 297 0 ) capacitor c=0.00591168f //x=22.46 //y=7.4
c326 ( 296 0 ) capacitor c=0.00591168f //x=21.58 //y=7.4
c327 ( 295 0 ) capacitor c=0.00591168f //x=20.7 //y=7.4
c328 ( 294 0 ) capacitor c=0.139422f //x=19.61 //y=7.4
c329 ( 293 0 ) capacitor c=0.00591168f //x=18.87 //y=7.4
c330 ( 291 0 ) capacitor c=0.00591168f //x=17.95 //y=7.4
c331 ( 290 0 ) capacitor c=0.00591168f //x=17.07 //y=7.4
c332 ( 289 0 ) capacitor c=0.116163f //x=16.28 //y=7.4
c333 ( 288 0 ) capacitor c=0.00591168f //x=15.5 //y=7.4
c334 ( 287 0 ) capacitor c=0.00591168f //x=14.62 //y=7.4
c335 ( 286 0 ) capacitor c=0.00591168f //x=13.74 //y=7.4
c336 ( 285 0 ) capacitor c=0.13452f //x=12.95 //y=7.4
c337 ( 284 0 ) capacitor c=0.00591168f //x=11.87 //y=7.4
c338 ( 283 0 ) capacitor c=0.00591168f //x=10.99 //y=7.4
c339 ( 282 0 ) capacitor c=0.00591168f //x=10.11 //y=7.4
c340 ( 281 0 ) capacitor c=0.00591168f //x=9.25 //y=7.4
c341 ( 279 0 ) capacitor c=0.155082f //x=8.14 //y=7.4
c342 ( 278 0 ) capacitor c=0.00591168f //x=7.06 //y=7.4
c343 ( 277 0 ) capacitor c=0.00591168f //x=6.18 //y=7.4
c344 ( 276 0 ) capacitor c=0.00591168f //x=5.3 //y=7.4
c345 ( 275 0 ) capacitor c=0.00591168f //x=4.44 //y=7.4
c346 ( 273 0 ) capacitor c=0.137403f //x=3.33 //y=7.4
c347 ( 272 0 ) capacitor c=0.00591168f //x=2.55 //y=7.4
c348 ( 271 0 ) capacitor c=0.00591168f //x=1.67 //y=7.4
c349 ( 270 0 ) capacitor c=0.248311f //x=0.74 //y=7.4
c350 ( 266 0 ) capacitor c=0.272255f //x=23.68 //y=7.4
c351 ( 253 0 ) capacitor c=0.028513f //x=23.255 //y=7.4
c352 ( 245 0 ) capacitor c=0.0287069f //x=22.375 //y=7.4
c353 ( 235 0 ) capacitor c=0.0292055f //x=21.495 //y=7.4
c354 ( 225 0 ) capacitor c=0.0452081f //x=20.615 //y=7.4
c355 ( 221 0 ) capacitor c=0.0275781f //x=19.44 //y=7.4
c356 ( 213 0 ) capacitor c=0.0285035f //x=18.745 //y=7.4
c357 ( 203 0 ) capacitor c=0.0291038f //x=17.865 //y=7.4
c358 ( 193 0 ) capacitor c=0.0240981f //x=16.985 //y=7.4
c359 ( 189 0 ) capacitor c=0.0236224f //x=16.11 //y=7.4
c360 ( 179 0 ) capacitor c=0.0288598f //x=15.415 //y=7.4
c361 ( 169 0 ) capacitor c=0.0288369f //x=14.535 //y=7.4
c362 ( 161 0 ) capacitor c=0.0240981f //x=13.655 //y=7.4
c363 ( 155 0 ) capacitor c=0.0394667f //x=12.78 //y=7.4
c364 ( 145 0 ) capacitor c=0.0288488f //x=11.785 //y=7.4
c365 ( 135 0 ) capacitor c=0.0287514f //x=10.905 //y=7.4
c366 ( 127 0 ) capacitor c=0.0284966f //x=10.025 //y=7.4
c367 ( 119 0 ) capacitor c=0.0383672f //x=9.145 //y=7.4
c368 ( 113 0 ) capacitor c=0.0394667f //x=7.97 //y=7.4
c369 ( 103 0 ) capacitor c=0.0288488f //x=6.975 //y=7.4
c370 ( 93 0 ) capacitor c=0.0287505f //x=6.095 //y=7.4
c371 ( 85 0 ) capacitor c=0.028511f //x=5.215 //y=7.4
c372 ( 77 0 ) capacitor c=0.0383672f //x=4.335 //y=7.4
c373 ( 71 0 ) capacitor c=0.0236224f //x=3.16 //y=7.4
c374 ( 61 0 ) capacitor c=0.0288637f //x=2.465 //y=7.4
c375 ( 53 0 ) capacitor c=0.0286367f //x=1.585 //y=7.4
c376 ( 41 0 ) capacitor c=0.8559f //x=23.68 //y=7.4
r377 (  264 298 ) resistor r=2.94794 //w=0.34 //l=0.085 //layer=li \
 //thickness=0.1 //x=23.425 //y=7.4 //x2=23.34 //y2=7.4
r378 (  264 266 ) resistor r=9.14286 //w=0.357 //l=0.255 //layer=li \
 //thickness=0.1 //x=23.425 //y=7.4 //x2=23.68 //y2=7.4
r379 (  257 298 ) resistor r=4.11603 //w=0.68 //l=0.17 //layer=li \
 //thickness=0.1 //x=23.34 //y=7.23 //x2=23.34 //y2=7.4
r380 (  257 319 ) resistor r=33.1979 //w=0.187 //l=0.485 //layer=li \
 //thickness=0.1 //x=23.34 //y=7.23 //x2=23.34 //y2=6.745
r381 (  254 297 ) resistor r=2.94794 //w=0.34 //l=0.085 //layer=li \
 //thickness=0.1 //x=22.545 //y=7.4 //x2=22.46 //y2=7.4
r382 (  254 256 ) resistor r=0.896359 //w=0.357 //l=0.025 //layer=li \
 //thickness=0.1 //x=22.545 //y=7.4 //x2=22.57 //y2=7.4
r383 (  253 298 ) resistor r=2.94794 //w=0.34 //l=0.085 //layer=li \
 //thickness=0.1 //x=23.255 //y=7.4 //x2=23.34 //y2=7.4
r384 (  253 256 ) resistor r=24.5602 //w=0.357 //l=0.685 //layer=li \
 //thickness=0.1 //x=23.255 //y=7.4 //x2=22.57 //y2=7.4
r385 (  247 297 ) resistor r=4.11603 //w=0.68 //l=0.17 //layer=li \
 //thickness=0.1 //x=22.46 //y=7.23 //x2=22.46 //y2=7.4
r386 (  247 318 ) resistor r=33.1979 //w=0.187 //l=0.485 //layer=li \
 //thickness=0.1 //x=22.46 //y=7.23 //x2=22.46 //y2=6.745
r387 (  246 296 ) resistor r=2.94794 //w=0.34 //l=0.085 //layer=li \
 //thickness=0.1 //x=21.665 //y=7.4 //x2=21.58 //y2=7.4
r388 (  245 297 ) resistor r=2.94794 //w=0.34 //l=0.085 //layer=li \
 //thickness=0.1 //x=22.375 //y=7.4 //x2=22.46 //y2=7.4
r389 (  245 246 ) resistor r=25.4566 //w=0.357 //l=0.71 //layer=li \
 //thickness=0.1 //x=22.375 //y=7.4 //x2=21.665 //y2=7.4
r390 (  239 296 ) resistor r=4.11603 //w=0.68 //l=0.17 //layer=li \
 //thickness=0.1 //x=21.58 //y=7.23 //x2=21.58 //y2=7.4
r391 (  239 317 ) resistor r=33.1979 //w=0.187 //l=0.485 //layer=li \
 //thickness=0.1 //x=21.58 //y=7.23 //x2=21.58 //y2=6.745
r392 (  236 295 ) resistor r=2.94794 //w=0.34 //l=0.085 //layer=li \
 //thickness=0.1 //x=20.785 //y=7.4 //x2=20.7 //y2=7.4
r393 (  236 238 ) resistor r=24.2017 //w=0.357 //l=0.675 //layer=li \
 //thickness=0.1 //x=20.785 //y=7.4 //x2=21.46 //y2=7.4
r394 (  235 296 ) resistor r=2.94794 //w=0.34 //l=0.085 //layer=li \
 //thickness=0.1 //x=21.495 //y=7.4 //x2=21.58 //y2=7.4
r395 (  235 238 ) resistor r=1.2549 //w=0.357 //l=0.035 //layer=li \
 //thickness=0.1 //x=21.495 //y=7.4 //x2=21.46 //y2=7.4
r396 (  229 295 ) resistor r=4.11603 //w=0.68 //l=0.17 //layer=li \
 //thickness=0.1 //x=20.7 //y=7.23 //x2=20.7 //y2=7.4
r397 (  229 316 ) resistor r=56.4706 //w=0.187 //l=0.825 //layer=li \
 //thickness=0.1 //x=20.7 //y=7.23 //x2=20.7 //y2=6.405
r398 (  226 294 ) resistor r=5.4201 //w=0.34 //l=0.17 //layer=li \
 //thickness=0.1 //x=19.78 //y=7.4 //x2=19.61 //y2=7.4
r399 (  226 228 ) resistor r=20.437 //w=0.357 //l=0.57 //layer=li \
 //thickness=0.1 //x=19.78 //y=7.4 //x2=20.35 //y2=7.4
r400 (  225 295 ) resistor r=2.94794 //w=0.34 //l=0.085 //layer=li \
 //thickness=0.1 //x=20.615 //y=7.4 //x2=20.7 //y2=7.4
r401 (  225 228 ) resistor r=9.5014 //w=0.357 //l=0.265 //layer=li \
 //thickness=0.1 //x=20.615 //y=7.4 //x2=20.35 //y2=7.4
r402 (  222 293 ) resistor r=2.94794 //w=0.34 //l=0.085 //layer=li \
 //thickness=0.1 //x=18.915 //y=7.4 //x2=18.83 //y2=7.4
r403 (  221 294 ) resistor r=5.4201 //w=0.34 //l=0.17 //layer=li \
 //thickness=0.1 //x=19.44 //y=7.4 //x2=19.61 //y2=7.4
r404 (  221 222 ) resistor r=18.8235 //w=0.357 //l=0.525 //layer=li \
 //thickness=0.1 //x=19.44 //y=7.4 //x2=18.915 //y2=7.4
r405 (  215 293 ) resistor r=4.11603 //w=0.68 //l=0.17 //layer=li \
 //thickness=0.1 //x=18.83 //y=7.23 //x2=18.83 //y2=7.4
r406 (  215 315 ) resistor r=33.1979 //w=0.187 //l=0.485 //layer=li \
 //thickness=0.1 //x=18.83 //y=7.23 //x2=18.83 //y2=6.745
r407 (  214 291 ) resistor r=2.94794 //w=0.34 //l=0.085 //layer=li \
 //thickness=0.1 //x=18.035 //y=7.4 //x2=17.95 //y2=7.4
r408 (  213 293 ) resistor r=2.94794 //w=0.34 //l=0.085 //layer=li \
 //thickness=0.1 //x=18.745 //y=7.4 //x2=18.83 //y2=7.4
r409 (  213 214 ) resistor r=25.4566 //w=0.357 //l=0.71 //layer=li \
 //thickness=0.1 //x=18.745 //y=7.4 //x2=18.035 //y2=7.4
r410 (  207 291 ) resistor r=4.11603 //w=0.68 //l=0.17 //layer=li \
 //thickness=0.1 //x=17.95 //y=7.23 //x2=17.95 //y2=7.4
r411 (  207 314 ) resistor r=33.1979 //w=0.187 //l=0.485 //layer=li \
 //thickness=0.1 //x=17.95 //y=7.23 //x2=17.95 //y2=6.745
r412 (  204 290 ) resistor r=2.94794 //w=0.34 //l=0.085 //layer=li \
 //thickness=0.1 //x=17.155 //y=7.4 //x2=17.07 //y2=7.4
r413 (  204 206 ) resistor r=21.6919 //w=0.357 //l=0.605 //layer=li \
 //thickness=0.1 //x=17.155 //y=7.4 //x2=17.76 //y2=7.4
r414 (  203 291 ) resistor r=2.94794 //w=0.34 //l=0.085 //layer=li \
 //thickness=0.1 //x=17.865 //y=7.4 //x2=17.95 //y2=7.4
r415 (  203 206 ) resistor r=3.76471 //w=0.357 //l=0.105 //layer=li \
 //thickness=0.1 //x=17.865 //y=7.4 //x2=17.76 //y2=7.4
r416 (  197 290 ) resistor r=4.11603 //w=0.68 //l=0.17 //layer=li \
 //thickness=0.1 //x=17.07 //y=7.23 //x2=17.07 //y2=7.4
r417 (  197 313 ) resistor r=56.4706 //w=0.187 //l=0.825 //layer=li \
 //thickness=0.1 //x=17.07 //y=7.23 //x2=17.07 //y2=6.405
r418 (  194 289 ) resistor r=5.4201 //w=0.34 //l=0.17 //layer=li \
 //thickness=0.1 //x=16.45 //y=7.4 //x2=16.28 //y2=7.4
r419 (  194 196 ) resistor r=7.17087 //w=0.357 //l=0.2 //layer=li \
 //thickness=0.1 //x=16.45 //y=7.4 //x2=16.65 //y2=7.4
r420 (  193 290 ) resistor r=2.94794 //w=0.34 //l=0.085 //layer=li \
 //thickness=0.1 //x=16.985 //y=7.4 //x2=17.07 //y2=7.4
r421 (  193 196 ) resistor r=12.0112 //w=0.357 //l=0.335 //layer=li \
 //thickness=0.1 //x=16.985 //y=7.4 //x2=16.65 //y2=7.4
r422 (  190 288 ) resistor r=2.94794 //w=0.34 //l=0.085 //layer=li \
 //thickness=0.1 //x=15.585 //y=7.4 //x2=15.5 //y2=7.4
r423 (  189 289 ) resistor r=5.4201 //w=0.34 //l=0.17 //layer=li \
 //thickness=0.1 //x=16.11 //y=7.4 //x2=16.28 //y2=7.4
r424 (  189 190 ) resistor r=18.8235 //w=0.357 //l=0.525 //layer=li \
 //thickness=0.1 //x=16.11 //y=7.4 //x2=15.585 //y2=7.4
r425 (  183 288 ) resistor r=4.11603 //w=0.68 //l=0.17 //layer=li \
 //thickness=0.1 //x=15.5 //y=7.23 //x2=15.5 //y2=7.4
r426 (  183 312 ) resistor r=33.1979 //w=0.187 //l=0.485 //layer=li \
 //thickness=0.1 //x=15.5 //y=7.23 //x2=15.5 //y2=6.745
r427 (  180 287 ) resistor r=2.94794 //w=0.34 //l=0.085 //layer=li \
 //thickness=0.1 //x=14.705 //y=7.4 //x2=14.62 //y2=7.4
r428 (  180 182 ) resistor r=16.6723 //w=0.357 //l=0.465 //layer=li \
 //thickness=0.1 //x=14.705 //y=7.4 //x2=15.17 //y2=7.4
r429 (  179 288 ) resistor r=2.94794 //w=0.34 //l=0.085 //layer=li \
 //thickness=0.1 //x=15.415 //y=7.4 //x2=15.5 //y2=7.4
r430 (  179 182 ) resistor r=8.78431 //w=0.357 //l=0.245 //layer=li \
 //thickness=0.1 //x=15.415 //y=7.4 //x2=15.17 //y2=7.4
r431 (  173 287 ) resistor r=4.11603 //w=0.68 //l=0.17 //layer=li \
 //thickness=0.1 //x=14.62 //y=7.23 //x2=14.62 //y2=7.4
r432 (  173 311 ) resistor r=33.1979 //w=0.187 //l=0.485 //layer=li \
 //thickness=0.1 //x=14.62 //y=7.23 //x2=14.62 //y2=6.745
r433 (  170 286 ) resistor r=2.94794 //w=0.34 //l=0.085 //layer=li \
 //thickness=0.1 //x=13.825 //y=7.4 //x2=13.74 //y2=7.4
r434 (  170 172 ) resistor r=8.42577 //w=0.357 //l=0.235 //layer=li \
 //thickness=0.1 //x=13.825 //y=7.4 //x2=14.06 //y2=7.4
r435 (  169 287 ) resistor r=2.94794 //w=0.34 //l=0.085 //layer=li \
 //thickness=0.1 //x=14.535 //y=7.4 //x2=14.62 //y2=7.4
r436 (  169 172 ) resistor r=17.0308 //w=0.357 //l=0.475 //layer=li \
 //thickness=0.1 //x=14.535 //y=7.4 //x2=14.06 //y2=7.4
r437 (  163 286 ) resistor r=4.11603 //w=0.68 //l=0.17 //layer=li \
 //thickness=0.1 //x=13.74 //y=7.23 //x2=13.74 //y2=7.4
r438 (  163 310 ) resistor r=56.4706 //w=0.187 //l=0.825 //layer=li \
 //thickness=0.1 //x=13.74 //y=7.23 //x2=13.74 //y2=6.405
r439 (  162 285 ) resistor r=5.4201 //w=0.34 //l=0.17 //layer=li \
 //thickness=0.1 //x=13.12 //y=7.4 //x2=12.95 //y2=7.4
r440 (  161 286 ) resistor r=2.94794 //w=0.34 //l=0.085 //layer=li \
 //thickness=0.1 //x=13.655 //y=7.4 //x2=13.74 //y2=7.4
r441 (  161 162 ) resistor r=19.1821 //w=0.357 //l=0.535 //layer=li \
 //thickness=0.1 //x=13.655 //y=7.4 //x2=13.12 //y2=7.4
r442 (  156 284 ) resistor r=2.94794 //w=0.34 //l=0.085 //layer=li \
 //thickness=0.1 //x=11.955 //y=7.4 //x2=11.87 //y2=7.4
r443 (  156 158 ) resistor r=22.409 //w=0.357 //l=0.625 //layer=li \
 //thickness=0.1 //x=11.955 //y=7.4 //x2=12.58 //y2=7.4
r444 (  155 285 ) resistor r=5.4201 //w=0.34 //l=0.17 //layer=li \
 //thickness=0.1 //x=12.78 //y=7.4 //x2=12.95 //y2=7.4
r445 (  155 158 ) resistor r=7.17087 //w=0.357 //l=0.2 //layer=li \
 //thickness=0.1 //x=12.78 //y=7.4 //x2=12.58 //y2=7.4
r446 (  149 284 ) resistor r=4.11603 //w=0.68 //l=0.17 //layer=li \
 //thickness=0.1 //x=11.87 //y=7.23 //x2=11.87 //y2=7.4
r447 (  149 309 ) resistor r=33.1979 //w=0.187 //l=0.485 //layer=li \
 //thickness=0.1 //x=11.87 //y=7.23 //x2=11.87 //y2=6.745
r448 (  146 283 ) resistor r=2.94794 //w=0.34 //l=0.085 //layer=li \
 //thickness=0.1 //x=11.075 //y=7.4 //x2=10.99 //y2=7.4
r449 (  146 148 ) resistor r=14.1625 //w=0.357 //l=0.395 //layer=li \
 //thickness=0.1 //x=11.075 //y=7.4 //x2=11.47 //y2=7.4
r450 (  145 284 ) resistor r=2.94794 //w=0.34 //l=0.085 //layer=li \
 //thickness=0.1 //x=11.785 //y=7.4 //x2=11.87 //y2=7.4
r451 (  145 148 ) resistor r=11.2941 //w=0.357 //l=0.315 //layer=li \
 //thickness=0.1 //x=11.785 //y=7.4 //x2=11.47 //y2=7.4
r452 (  139 283 ) resistor r=4.11603 //w=0.68 //l=0.17 //layer=li \
 //thickness=0.1 //x=10.99 //y=7.23 //x2=10.99 //y2=7.4
r453 (  139 308 ) resistor r=33.1979 //w=0.187 //l=0.485 //layer=li \
 //thickness=0.1 //x=10.99 //y=7.23 //x2=10.99 //y2=6.745
r454 (  136 282 ) resistor r=2.94794 //w=0.34 //l=0.085 //layer=li \
 //thickness=0.1 //x=10.195 //y=7.4 //x2=10.11 //y2=7.4
r455 (  136 138 ) resistor r=5.91597 //w=0.357 //l=0.165 //layer=li \
 //thickness=0.1 //x=10.195 //y=7.4 //x2=10.36 //y2=7.4
r456 (  135 283 ) resistor r=2.94794 //w=0.34 //l=0.085 //layer=li \
 //thickness=0.1 //x=10.905 //y=7.4 //x2=10.99 //y2=7.4
r457 (  135 138 ) resistor r=19.5406 //w=0.357 //l=0.545 //layer=li \
 //thickness=0.1 //x=10.905 //y=7.4 //x2=10.36 //y2=7.4
r458 (  129 282 ) resistor r=4.11603 //w=0.68 //l=0.17 //layer=li \
 //thickness=0.1 //x=10.11 //y=7.23 //x2=10.11 //y2=7.4
r459 (  129 307 ) resistor r=33.1979 //w=0.187 //l=0.485 //layer=li \
 //thickness=0.1 //x=10.11 //y=7.23 //x2=10.11 //y2=6.745
r460 (  128 281 ) resistor r=2.94794 //w=0.34 //l=0.085 //layer=li \
 //thickness=0.1 //x=9.315 //y=7.4 //x2=9.23 //y2=7.4
r461 (  127 282 ) resistor r=2.94794 //w=0.34 //l=0.085 //layer=li \
 //thickness=0.1 //x=10.025 //y=7.4 //x2=10.11 //y2=7.4
r462 (  127 128 ) resistor r=25.4566 //w=0.357 //l=0.71 //layer=li \
 //thickness=0.1 //x=10.025 //y=7.4 //x2=9.315 //y2=7.4
r463 (  121 281 ) resistor r=4.11603 //w=0.68 //l=0.17 //layer=li \
 //thickness=0.1 //x=9.23 //y=7.23 //x2=9.23 //y2=7.4
r464 (  121 306 ) resistor r=56.4706 //w=0.187 //l=0.825 //layer=li \
 //thickness=0.1 //x=9.23 //y=7.23 //x2=9.23 //y2=6.405
r465 (  120 279 ) resistor r=5.4201 //w=0.34 //l=0.17 //layer=li \
 //thickness=0.1 //x=8.31 //y=7.4 //x2=8.14 //y2=7.4
r466 (  119 281 ) resistor r=2.94794 //w=0.34 //l=0.085 //layer=li \
 //thickness=0.1 //x=9.145 //y=7.4 //x2=9.23 //y2=7.4
r467 (  119 120 ) resistor r=29.9384 //w=0.357 //l=0.835 //layer=li \
 //thickness=0.1 //x=9.145 //y=7.4 //x2=8.31 //y2=7.4
r468 (  114 278 ) resistor r=2.94794 //w=0.34 //l=0.085 //layer=li \
 //thickness=0.1 //x=7.145 //y=7.4 //x2=7.06 //y2=7.4
r469 (  114 116 ) resistor r=22.409 //w=0.357 //l=0.625 //layer=li \
 //thickness=0.1 //x=7.145 //y=7.4 //x2=7.77 //y2=7.4
r470 (  113 279 ) resistor r=5.4201 //w=0.34 //l=0.17 //layer=li \
 //thickness=0.1 //x=7.97 //y=7.4 //x2=8.14 //y2=7.4
r471 (  113 116 ) resistor r=7.17087 //w=0.357 //l=0.2 //layer=li \