// File: DFFSNX1.spi.pex
// Created: Tue Oct 15 15:48:00 2024
// Program "Calibre xRC"
// Version "v2023.2_27.15"
// Nominal Temperature: 30C
// Circuit Temperature: 30C
// 
simulator lang=spectre
subckt PM_DFFSNX1\%GND ( 1 43 47 50 55 63 69 79 85 95 101 107 115 123 138 142 \
 145 148 151 153 155 156 157 158 159 160 )
c286 ( 160 0 ) capacitor c=0.0226075f //x=20.495 //y=0.875
c287 ( 159 0 ) capacitor c=0.0207407f //x=17.27 //y=0.865
c288 ( 158 0 ) capacitor c=0.0207407f //x=13.94 //y=0.865
c289 ( 157 0 ) capacitor c=0.0226205f //x=9.025 //y=0.875
c290 ( 156 0 ) capacitor c=0.0226323f //x=4.215 //y=0.875
c291 ( 155 0 ) capacitor c=0.0208404f //x=0.99 //y=0.865
c292 ( 154 0 ) capacitor c=0.00440144f //x=20.685 //y=0
c293 ( 153 0 ) capacitor c=0.104091f //x=19.61 //y=0
c294 ( 152 0 ) capacitor c=0.00440095f //x=17.46 //y=0
c295 ( 151 0 ) capacitor c=0.106174f //x=16.28 //y=0
c296 ( 150 0 ) capacitor c=0.00440095f //x=14.06 //y=0
c297 ( 148 0 ) capacitor c=0.108248f //x=12.95 //y=0
c298 ( 147 0 ) capacitor c=0.00440144f //x=9.25 //y=0
c299 ( 145 0 ) capacitor c=0.108235f //x=8.14 //y=0
c300 ( 144 0 ) capacitor c=0.00440144f //x=4.44 //y=0
c301 ( 142 0 ) capacitor c=0.105313f //x=3.33 //y=0
c302 ( 141 0 ) capacitor c=0.00440095f //x=1.18 //y=0
c303 ( 138 0 ) capacitor c=0.322261f //x=23.68 //y=0
c304 ( 123 0 ) capacitor c=0.0339325f //x=20.6 //y=0
c305 ( 115 0 ) capacitor c=0.0718026f //x=19.44 //y=0
c306 ( 107 0 ) capacitor c=0.0388888f //x=17.375 //y=0
c307 ( 101 0 ) capacitor c=0.0718026f //x=16.11 //y=0
c308 ( 95 0 ) capacitor c=0.0388888f //x=14.045 //y=0
c309 ( 85 0 ) capacitor c=0.133402f //x=12.78 //y=0
c310 ( 79 0 ) capacitor c=0.0339482f //x=9.13 //y=0
c311 ( 69 0 ) capacitor c=0.133515f //x=7.97 //y=0
c312 ( 63 0 ) capacitor c=0.0339482f //x=4.32 //y=0
c313 ( 55 0 ) capacitor c=0.0720582f //x=3.16 //y=0
c314 ( 50 0 ) capacitor c=0.179262f //x=0.74 //y=0
c315 ( 47 0 ) capacitor c=0.0426751f //x=1.095 //y=0
c316 ( 43 0 ) capacitor c=0.775647f //x=23.68 //y=0
r317 (  136 138 ) resistor r=39.7983 //w=0.357 //l=1.11 //layer=li \
 //thickness=0.1 //x=22.57 //y=0 //x2=23.68 //y2=0
r318 (  134 136 ) resistor r=39.7983 //w=0.357 //l=1.11 //layer=li \
 //thickness=0.1 //x=21.46 //y=0 //x2=22.57 //y2=0
r319 (  132 154 ) resistor r=2.94794 //w=0.34 //l=0.085 //layer=li \
 //thickness=0.1 //x=20.77 //y=0 //x2=20.685 //y2=0
r320 (  132 134 ) resistor r=24.7395 //w=0.357 //l=0.69 //layer=li \
 //thickness=0.1 //x=20.77 //y=0 //x2=21.46 //y2=0
r321 (  127 154 ) resistor r=4.11603 //w=0.68 //l=0.17 //layer=li \
 //thickness=0.1 //x=20.685 //y=0.17 //x2=20.685 //y2=0
r322 (  127 160 ) resistor r=54.4171 //w=0.187 //l=0.795 //layer=li \
 //thickness=0.1 //x=20.685 //y=0.17 //x2=20.685 //y2=0.965
r323 (  124 153 ) resistor r=5.4201 //w=0.34 //l=0.17 //layer=li \
 //thickness=0.1 //x=19.78 //y=0 //x2=19.61 //y2=0
r324 (  124 126 ) resistor r=20.437 //w=0.357 //l=0.57 //layer=li \
 //thickness=0.1 //x=19.78 //y=0 //x2=20.35 //y2=0
r325 (  123 154 ) resistor r=2.94794 //w=0.34 //l=0.085 //layer=li \
 //thickness=0.1 //x=20.6 //y=0 //x2=20.685 //y2=0
r326 (  123 126 ) resistor r=8.96359 //w=0.357 //l=0.25 //layer=li \
 //thickness=0.1 //x=20.6 //y=0 //x2=20.35 //y2=0
r327 (  118 120 ) resistor r=39.7983 //w=0.357 //l=1.11 //layer=li \
 //thickness=0.1 //x=17.76 //y=0 //x2=18.87 //y2=0
r328 (  116 152 ) resistor r=2.94794 //w=0.34 //l=0.085 //layer=li \
 //thickness=0.1 //x=17.545 //y=0 //x2=17.46 //y2=0
r329 (  116 118 ) resistor r=7.70868 //w=0.357 //l=0.215 //layer=li \
 //thickness=0.1 //x=17.545 //y=0 //x2=17.76 //y2=0
r330 (  115 153 ) resistor r=5.4201 //w=0.34 //l=0.17 //layer=li \
 //thickness=0.1 //x=19.44 //y=0 //x2=19.61 //y2=0
r331 (  115 120 ) resistor r=20.437 //w=0.357 //l=0.57 //layer=li \
 //thickness=0.1 //x=19.44 //y=0 //x2=18.87 //y2=0
r332 (  111 152 ) resistor r=4.11603 //w=0.68 //l=0.17 //layer=li \
 //thickness=0.1 //x=17.46 //y=0.17 //x2=17.46 //y2=0
r333 (  111 159 ) resistor r=53.7326 //w=0.187 //l=0.785 //layer=li \
 //thickness=0.1 //x=17.46 //y=0.17 //x2=17.46 //y2=0.955
r334 (  108 151 ) resistor r=5.4201 //w=0.34 //l=0.17 //layer=li \
 //thickness=0.1 //x=16.45 //y=0 //x2=16.28 //y2=0
r335 (  108 110 ) resistor r=7.17087 //w=0.357 //l=0.2 //layer=li \
 //thickness=0.1 //x=16.45 //y=0 //x2=16.65 //y2=0
r336 (  107 152 ) resistor r=2.94794 //w=0.34 //l=0.085 //layer=li \
 //thickness=0.1 //x=17.375 //y=0 //x2=17.46 //y2=0
r337 (  107 110 ) resistor r=25.9944 //w=0.357 //l=0.725 //layer=li \
 //thickness=0.1 //x=17.375 //y=0 //x2=16.65 //y2=0
r338 (  102 150 ) resistor r=2.94794 //w=0.34 //l=0.085 //layer=li \
 //thickness=0.1 //x=14.215 //y=0 //x2=14.13 //y2=0
r339 (  102 104 ) resistor r=34.2409 //w=0.357 //l=0.955 //layer=li \
 //thickness=0.1 //x=14.215 //y=0 //x2=15.17 //y2=0
r340 (  101 151 ) resistor r=5.4201 //w=0.34 //l=0.17 //layer=li \
 //thickness=0.1 //x=16.11 //y=0 //x2=16.28 //y2=0
r341 (  101 104 ) resistor r=33.7031 //w=0.357 //l=0.94 //layer=li \
 //thickness=0.1 //x=16.11 //y=0 //x2=15.17 //y2=0
r342 (  97 150 ) resistor r=4.11603 //w=0.68 //l=0.17 //layer=li \
 //thickness=0.1 //x=14.13 //y=0.17 //x2=14.13 //y2=0
r343 (  97 158 ) resistor r=53.7326 //w=0.187 //l=0.785 //layer=li \
 //thickness=0.1 //x=14.13 //y=0.17 //x2=14.13 //y2=0.955
r344 (  96 148 ) resistor r=5.4201 //w=0.34 //l=0.17 //layer=li \
 //thickness=0.1 //x=13.12 //y=0 //x2=12.95 //y2=0
r345 (  95 150 ) resistor r=2.94794 //w=0.34 //l=0.085 //layer=li \
 //thickness=0.1 //x=14.045 //y=0 //x2=14.13 //y2=0
r346 (  95 96 ) resistor r=33.1653 //w=0.357 //l=0.925 //layer=li \
 //thickness=0.1 //x=14.045 //y=0 //x2=13.12 //y2=0
r347 (  90 92 ) resistor r=39.7983 //w=0.357 //l=1.11 //layer=li \
 //thickness=0.1 //x=11.47 //y=0 //x2=12.58 //y2=0
r348 (  88 90 ) resistor r=39.7983 //w=0.357 //l=1.11 //layer=li \
 //thickness=0.1 //x=10.36 //y=0 //x2=11.47 //y2=0
r349 (  86 147 ) resistor r=2.94794 //w=0.34 //l=0.085 //layer=li \
 //thickness=0.1 //x=9.3 //y=0 //x2=9.215 //y2=0
r350 (  86 88 ) resistor r=38.0056 //w=0.357 //l=1.06 //layer=li \
 //thickness=0.1 //x=9.3 //y=0 //x2=10.36 //y2=0
r351 (  85 148 ) resistor r=5.4201 //w=0.34 //l=0.17 //layer=li \
 //thickness=0.1 //x=12.78 //y=0 //x2=12.95 //y2=0
r352 (  85 92 ) resistor r=7.17087 //w=0.357 //l=0.2 //layer=li \
 //thickness=0.1 //x=12.78 //y=0 //x2=12.58 //y2=0
r353 (  81 147 ) resistor r=4.11603 //w=0.68 //l=0.17 //layer=li \
 //thickness=0.1 //x=9.215 //y=0.17 //x2=9.215 //y2=0
r354 (  81 157 ) resistor r=54.4171 //w=0.187 //l=0.795 //layer=li \
 //thickness=0.1 //x=9.215 //y=0.17 //x2=9.215 //y2=0.965
r355 (  80 145 ) resistor r=5.4201 //w=0.34 //l=0.17 //layer=li \
 //thickness=0.1 //x=8.31 //y=0 //x2=8.14 //y2=0
r356 (  79 147 ) resistor r=2.94794 //w=0.34 //l=0.085 //layer=li \
 //thickness=0.1 //x=9.13 //y=0 //x2=9.215 //y2=0
r357 (  79 80 ) resistor r=29.4006 //w=0.357 //l=0.82 //layer=li \
 //thickness=0.1 //x=9.13 //y=0 //x2=8.31 //y2=0
r358 (  74 76 ) resistor r=39.7983 //w=0.357 //l=1.11 //layer=li \
 //thickness=0.1 //x=6.66 //y=0 //x2=7.77 //y2=0
r359 (  72 74 ) resistor r=39.7983 //w=0.357 //l=1.11 //layer=li \
 //thickness=0.1 //x=5.55 //y=0 //x2=6.66 //y2=0
r360 (  70 144 ) resistor r=2.94794 //w=0.34 //l=0.085 //layer=li \
 //thickness=0.1 //x=4.49 //y=0 //x2=4.405 //y2=0
r361 (  70 72 ) resistor r=38.0056 //w=0.357 //l=1.06 //layer=li \
 //thickness=0.1 //x=4.49 //y=0 //x2=5.55 //y2=0
r362 (  69 145 ) resistor r=5.4201 //w=0.34 //l=0.17 //layer=li \
 //thickness=0.1 //x=7.97 //y=0 //x2=8.14 //y2=0
r363 (  69 76 ) resistor r=7.17087 //w=0.357 //l=0.2 //layer=li \
 //thickness=0.1 //x=7.97 //y=0 //x2=7.77 //y2=0
r364 (  65 144 ) resistor r=4.11603 //w=0.68 //l=0.17 //layer=li \
 //thickness=0.1 //x=4.405 //y=0.17 //x2=4.405 //y2=0
r365 (  65 156 ) resistor r=54.4171 //w=0.187 //l=0.795 //layer=li \
 //thickness=0.1 //x=4.405 //y=0.17 //x2=4.405 //y2=0.965
r366 (  64 142 ) resistor r=5.4201 //w=0.34 //l=0.17 //layer=li \
 //thickness=0.1 //x=3.5 //y=0 //x2=3.33 //y2=0
r367 (  63 144 ) resistor r=2.94794 //w=0.34 //l=0.085 //layer=li \
 //thickness=0.1 //x=4.32 //y=0 //x2=4.405 //y2=0
r368 (  63 64 ) resistor r=29.4006 //w=0.357 //l=0.82 //layer=li \
 //thickness=0.1 //x=4.32 //y=0 //x2=3.5 //y2=0
r369 (  58 60 ) resistor r=39.7983 //w=0.357 //l=1.11 //layer=li \
 //thickness=0.1 //x=1.85 //y=0 //x2=2.96 //y2=0
r370 (  56 141 ) resistor r=2.94794 //w=0.34 //l=0.085 //layer=li \
 //thickness=0.1 //x=1.265 //y=0 //x2=1.18 //y2=0
r371 (  56 58 ) resistor r=20.9748 //w=0.357 //l=0.585 //layer=li \
 //thickness=0.1 //x=1.265 //y=0 //x2=1.85 //y2=0
r372 (  55 142 ) resistor r=5.4201 //w=0.34 //l=0.17 //layer=li \
 //thickness=0.1 //x=3.16 //y=0 //x2=3.33 //y2=0
r373 (  55 60 ) resistor r=7.17087 //w=0.357 //l=0.2 //layer=li \
 //thickness=0.1 //x=3.16 //y=0 //x2=2.96 //y2=0
r374 (  51 141 ) resistor r=4.11603 //w=0.68 //l=0.17 //layer=li \
 //thickness=0.1 //x=1.18 //y=0.17 //x2=1.18 //y2=0
r375 (  51 155 ) resistor r=53.7326 //w=0.187 //l=0.785 //layer=li \
 //thickness=0.1 //x=1.18 //y=0.17 //x2=1.18 //y2=0.955
r376 (  47 141 ) resistor r=2.94794 //w=0.34 //l=0.085 //layer=li \
 //thickness=0.1 //x=1.095 //y=0 //x2=1.18 //y2=0
r377 (  47 50 ) resistor r=12.7283 //w=0.357 //l=0.355 //layer=li \
 //thickness=0.1 //x=1.095 //y=0 //x2=0.74 //y2=0
r378 (  43 138 ) resistor r=3.1 //w=0.17 //l=0.51 //layer=mcon //count=3 \
 //x=23.68 //y=0 //x2=23.68 //y2=0
r379 (  41 136 ) resistor r=3.1 //w=0.17 //l=0.51 //layer=mcon //count=3 \
 //x=22.57 //y=0 //x2=22.57 //y2=0
r380 (  41 43 ) resistor r=0.460963 //w=0.301 //l=1.11 //layer=m1 \
 //thickness=0.36 //x=22.57 //y=0 //x2=23.68 //y2=0
r381 (  39 134 ) resistor r=3.1 //w=0.17 //l=0.51 //layer=mcon //count=3 \
 //x=21.46 //y=0 //x2=21.46 //y2=0
r382 (  39 41 ) resistor r=0.460963 //w=0.301 //l=1.11 //layer=m1 \
 //thickness=0.36 //x=21.46 //y=0 //x2=22.57 //y2=0
r383 (  37 126 ) resistor r=3.1 //w=0.17 //l=0.51 //layer=mcon //count=3 \
 //x=20.35 //y=0 //x2=20.35 //y2=0
r384 (  37 39 ) resistor r=0.460963 //w=0.301 //l=1.11 //layer=m1 \
 //thickness=0.36 //x=20.35 //y=0 //x2=21.46 //y2=0
r385 (  35 120 ) resistor r=3.1 //w=0.17 //l=0.51 //layer=mcon //count=3 \
 //x=18.87 //y=0 //x2=18.87 //y2=0
r386 (  35 37 ) resistor r=0.614618 //w=0.301 //l=1.48 //layer=m1 \
 //thickness=0.36 //x=18.87 //y=0 //x2=20.35 //y2=0
r387 (  33 118 ) resistor r=3.1 //w=0.17 //l=0.51 //layer=mcon //count=3 \
 //x=17.76 //y=0 //x2=17.76 //y2=0
r388 (  33 35 ) resistor r=0.460963 //w=0.301 //l=1.11 //layer=m1 \
 //thickness=0.36 //x=17.76 //y=0 //x2=18.87 //y2=0
r389 (  31 110 ) resistor r=3.1 //w=0.17 //l=0.51 //layer=mcon //count=3 \
 //x=16.65 //y=0 //x2=16.65 //y2=0
r390 (  31 33 ) resistor r=0.460963 //w=0.301 //l=1.11 //layer=m1 \
 //thickness=0.36 //x=16.65 //y=0 //x2=17.76 //y2=0
r391 (  29 104 ) resistor r=3.1 //w=0.17 //l=0.51 //layer=mcon //count=3 \
 //x=15.17 //y=0 //x2=15.17 //y2=0
r392 (  29 31 ) resistor r=0.614618 //w=0.301 //l=1.48 //layer=m1 \
 //thickness=0.36 //x=15.17 //y=0 //x2=16.65 //y2=0
r393 (  27 150 ) resistor r=3.1 //w=0.17 //l=0.51 //layer=mcon //count=3 \
 //x=14.06 //y=0 //x2=14.06 //y2=0
r394 (  27 29 ) resistor r=0.460963 //w=0.301 //l=1.11 //layer=m1 \
 //thickness=0.36 //x=14.06 //y=0 //x2=15.17 //y2=0
r395 (  25 92 ) resistor r=3.1 //w=0.17 //l=0.51 //layer=mcon //count=3 \
 //x=12.58 //y=0 //x2=12.58 //y2=0
r396 (  25 27 ) resistor r=0.614618 //w=0.301 //l=1.48 //layer=m1 \
 //thickness=0.36 //x=12.58 //y=0 //x2=14.06 //y2=0
r397 (  22 90 ) resistor r=3.1 //w=0.17 //l=0.51 //layer=mcon //count=3 \
 //x=11.47 //y=0 //x2=11.47 //y2=0
r398 (  20 88 ) resistor r=3.1 //w=0.17 //l=0.51 //layer=mcon //count=3 \
 //x=10.36 //y=0 //x2=10.36 //y2=0
r399 (  20 22 ) resistor r=0.460963 //w=0.301 //l=1.11 //layer=m1 \
 //thickness=0.36 //x=10.36 //y=0 //x2=11.47 //y2=0
r400 (  18 147 ) resistor r=3.1 //w=0.17 //l=0.51 //layer=mcon //count=3 \
 //x=9.25 //y=0 //x2=9.25 //y2=0
r401 (  18 20 ) resistor r=0.460963 //w=0.301 //l=1.11 //layer=m1 \
 //thickness=0.36 //x=9.25 //y=0 //x2=10.36 //y2=0
r402 (  16 76 ) resistor r=3.1 //w=0.17 //l=0.51 //layer=mcon //count=3 \
 //x=7.77 //y=0 //x2=7.77 //y2=0
r403 (  16 18 ) resistor r=0.614618 //w=0.301 //l=1.48 //layer=m1 \
 //thickness=0.36 //x=7.77 //y=0 //x2=9.25 //y2=0
r404 (  14 74 ) resistor r=3.1 //w=0.17 //l=0.51 //layer=mcon //count=3 \
 //x=6.66 //y=0 //x2=6.66 //y2=0
r405 (  14 16 ) resistor r=0.460963 //w=0.301 //l=1.11 //layer=m1 \
 //thickness=0.36 //x=6.66 //y=0 //x2=7.77 //y2=0
r406 (  12 72 ) resistor r=3.1 //w=0.17 //l=0.51 //layer=mcon //count=3 \
 //x=5.55 //y=0 //x2=5.55 //y2=0
r407 (  12 14 ) resistor r=0.460963 //w=0.301 //l=1.11 //layer=m1 \
 //thickness=0.36 //x=5.55 //y=0 //x2=6.66 //y2=0
r408 (  10 144 ) resistor r=3.1 //w=0.17 //l=0.51 //layer=mcon //count=3 \
 //x=4.44 //y=0 //x2=4.44 //y2=0
r409 (  10 12 ) resistor r=0.460963 //w=0.301 //l=1.11 //layer=m1 \
 //thickness=0.36 //x=4.44 //y=0 //x2=5.55 //y2=0
r410 (  8 60 ) resistor r=3.1 //w=0.17 //l=0.51 //layer=mcon //count=3 \
 //x=2.96 //y=0 //x2=2.96 //y2=0
r411 (  8 10 ) resistor r=0.614618 //w=0.301 //l=1.48 //layer=m1 \
 //thickness=0.36 //x=2.96 //y=0 //x2=4.44 //y2=0
r412 (  6 58 ) resistor r=3.1 //w=0.17 //l=0.51 //layer=mcon //count=3 \
 //x=1.85 //y=0 //x2=1.85 //y2=0
r413 (  6 8 ) resistor r=0.460963 //w=0.301 //l=1.11 //layer=m1 \
 //thickness=0.36 //x=1.85 //y=0 //x2=2.96 //y2=0
r414 (  3 50 ) resistor r=3.1 //w=0.17 //l=0.51 //layer=mcon //count=3 \
 //x=0.74 //y=0 //x2=0.74 //y2=0
r415 (  3 6 ) resistor r=0.460963 //w=0.301 //l=1.11 //layer=m1 \
 //thickness=0.36 //x=0.74 //y=0 //x2=1.85 //y2=0
r416 (  1 25 ) resistor r=0.153654 //w=0.301 //l=0.37 //layer=m1 \
 //thickness=0.36 //x=12.21 //y=0 //x2=12.58 //y2=0
r417 (  1 22 ) resistor r=0.307309 //w=0.301 //l=0.74 //layer=m1 \
 //thickness=0.36 //x=12.21 //y=0 //x2=11.47 //y2=0
ends PM_DFFSNX1\%GND

subckt PM_DFFSNX1\%VDD ( 1 43 55 63 73 79 87 95 105 115 121 129 137 147 157 \
 163 171 181 191 195 205 215 223 227 237 247 255 268 272 275 281 287 291 296 \
 301 302 303 304 305 306 307 308 309 310 311 312 313 314 315 316 317 318 319 \
 320 321 )
c309 ( 321 0 ) capacitor c=0.0453059f //x=23.195 //y=5.02
c310 ( 320 0 ) capacitor c=0.02424f //x=22.315 //y=5.02
c311 ( 319 0 ) capacitor c=0.02424f //x=21.435 //y=5.02
c312 ( 318 0 ) capacitor c=0.0532367f //x=20.565 //y=5.02
c313 ( 317 0 ) capacitor c=0.0381505f //x=18.685 //y=5.02
c314 ( 316 0 ) capacitor c=0.0241306f //x=17.805 //y=5.02
c315 ( 315 0 ) capacitor c=0.0493657f //x=16.935 //y=5.02
c316 ( 314 0 ) capacitor c=0.0381505f //x=15.355 //y=5.02
c317 ( 313 0 ) capacitor c=0.0240074f //x=14.475 //y=5.02
c318 ( 312 0 ) capacitor c=0.049209f //x=13.605 //y=5.02
c319 ( 311 0 ) capacitor c=0.0452179f //x=11.725 //y=5.02
c320 ( 310 0 ) capacitor c=0.024152f //x=10.845 //y=5.02
c321 ( 309 0 ) capacitor c=0.024152f //x=9.965 //y=5.02
c322 ( 308 0 ) capacitor c=0.053132f //x=9.095 //y=5.02
c323 ( 307 0 ) capacitor c=0.0452179f //x=6.915 //y=5.02
c324 ( 306 0 ) capacitor c=0.024152f //x=6.035 //y=5.02
c325 ( 305 0 ) capacitor c=0.02424f //x=5.155 //y=5.02
c326 ( 304 0 ) capacitor c=0.0532367f //x=4.285 //y=5.02
c327 ( 303 0 ) capacitor c=0.0381505f //x=2.405 //y=5.02
c328 ( 302 0 ) capacitor c=0.024246f //x=1.525 //y=5.02
c329 ( 301 0 ) capacitor c=0.053196f //x=0.655 //y=5.02
c330 ( 300 0 ) capacitor c=0.00591168f //x=23.34 //y=7.4
c331 ( 299 0 ) capacitor c=0.00591168f //x=22.46 //y=7.4
c332 ( 298 0 ) capacitor c=0.00591168f //x=21.58 //y=7.4
c333 ( 297 0 ) capacitor c=0.00591168f //x=20.7 //y=7.4
c334 ( 296 0 ) capacitor c=0.137302f //x=19.61 //y=7.4
c335 ( 295 0 ) capacitor c=0.00591168f //x=18.87 //y=7.4
c336 ( 293 0 ) capacitor c=0.00591168f //x=17.95 //y=7.4
c337 ( 292 0 ) capacitor c=0.00591168f //x=17.07 //y=7.4
c338 ( 291 0 ) capacitor c=0.116163f //x=16.28 //y=7.4
c339 ( 290 0 ) capacitor c=0.00591168f //x=15.5 //y=7.4
c340 ( 289 0 ) capacitor c=0.00591168f //x=14.62 //y=7.4
c341 ( 288 0 ) capacitor c=0.00591168f //x=13.74 //y=7.4
c342 ( 287 0 ) capacitor c=0.13452f //x=12.95 //y=7.4
c343 ( 286 0 ) capacitor c=0.00591168f //x=11.87 //y=7.4
c344 ( 285 0 ) capacitor c=0.00591168f //x=10.99 //y=7.4
c345 ( 284 0 ) capacitor c=0.00591168f //x=10.11 //y=7.4
c346 ( 283 0 ) capacitor c=0.00591168f //x=9.25 //y=7.4
c347 ( 281 0 ) capacitor c=0.155082f //x=8.14 //y=7.4
c348 ( 280 0 ) capacitor c=0.00591168f //x=7.06 //y=7.4
c349 ( 279 0 ) capacitor c=0.00591168f //x=6.18 //y=7.4
c350 ( 278 0 ) capacitor c=0.00591168f //x=5.3 //y=7.4
c351 ( 277 0 ) capacitor c=0.00591168f //x=4.44 //y=7.4
c352 ( 275 0 ) capacitor c=0.137403f //x=3.33 //y=7.4
c353 ( 274 0 ) capacitor c=0.00591168f //x=2.55 //y=7.4
c354 ( 273 0 ) capacitor c=0.00591168f //x=1.67 //y=7.4
c355 ( 272 0 ) capacitor c=0.248311f //x=0.74 //y=7.4
c356 ( 268 0 ) capacitor c=0.273105f //x=23.68 //y=7.4
c357 ( 255 0 ) capacitor c=0.0288769f //x=23.255 //y=7.4
c358 ( 247 0 ) capacitor c=0.0287757f //x=22.375 //y=7.4
c359 ( 237 0 ) capacitor c=0.028511f //x=21.495 //y=7.4
c360 ( 227 0 ) capacitor c=0.0383672f //x=20.615 //y=7.4
c361 ( 223 0 ) capacitor c=0.0236224f //x=19.44 //y=7.4
c362 ( 215 0 ) capacitor c=0.0288637f //x=18.745 //y=7.4
c363 ( 205 0 ) capacitor c=0.0291038f //x=17.865 //y=7.4
c364 ( 195 0 ) capacitor c=0.0240981f //x=16.985 //y=7.4
c365 ( 191 0 ) capacitor c=0.0236224f //x=16.11 //y=7.4
c366 ( 181 0 ) capacitor c=0.0288598f //x=15.415 //y=7.4
c367 ( 171 0 ) capacitor c=0.0288369f //x=14.535 //y=7.4
c368 ( 163 0 ) capacitor c=0.0240981f //x=13.655 //y=7.4
c369 ( 157 0 ) capacitor c=0.0394667f //x=12.78 //y=7.4
c370 ( 147 0 ) capacitor c=0.0288488f //x=11.785 //y=7.4
c371 ( 137 0 ) capacitor c=0.0287514f //x=10.905 //y=7.4
c372 ( 129 0 ) capacitor c=0.0284966f //x=10.025 //y=7.4
c373 ( 121 0 ) capacitor c=0.0383672f //x=9.145 //y=7.4
c374 ( 115 0 ) capacitor c=0.0394667f //x=7.97 //y=7.4
c375 ( 105 0 ) capacitor c=0.0288488f //x=6.975 //y=7.4
c376 ( 95 0 ) capacitor c=0.0287505f //x=6.095 //y=7.4
c377 ( 87 0 ) capacitor c=0.028511f //x=5.215 //y=7.4
c378 ( 79 0 ) capacitor c=0.0383672f //x=4.335 //y=7.4
c379 ( 73 0 ) capacitor c=0.0236224f //x=3.16 //y=7.4
c380 ( 63 0 ) capacitor c=0.0288637f //x=2.465 //y=7.4
c381 ( 55 0 ) capacitor c=0.0286367f //x=1.585 //y=7.4
c382 ( 43 0 ) capacitor c=0.849079f //x=23.68 //y=7.4
r383 (  266 300 ) resistor r=2.94794 //w=0.34 //l=0.085 //layer=li \
 //thickness=0.1 //x=23.425 //y=7.4 //x2=23.34 //y2=7.4
r384 (  266 268 ) resistor r=9.14286 //w=0.357 //l=0.255 //layer=li \
 //thickness=0.1 //x=23.425 //y=7.4 //x2=23.68 //y2=7.4
r385 (  259 300 ) resistor r=4.11603 //w=0.68 //l=0.17 //layer=li \
 //thickness=0.1 //x=23.34 //y=7.23 //x2=23.34 //y2=7.4
r386 (  259 321 ) resistor r=33.1979 //w=0.187 //l=0.485 //layer=li \
 //thickness=0.1 //x=23.34 //y=7.23 //x2=23.34 //y2=6.745
r387 (  256 299 ) resistor r=2.94794 //w=0.34 //l=0.085 //layer=li \
 //thickness=0.1 //x=22.545 //y=7.4 //x2=22.46 //y2=7.4
r388 (  256 258 ) resistor r=0.896359 //w=0.357 //l=0.025 //layer=li \
 //thickness=0.1 //x=22.545 //y=7.4 //x2=22.57 //y2=7.4
r389 (  255 300 ) resistor r=2.94794 //w=0.34 //l=0.085 //layer=li \
 //thickness=0.1 //x=23.255 //y=7.4 //x2=23.34 //y2=7.4
r390 (  255 258 ) resistor r=24.5602 //w=0.357 //l=0.685 //layer=li \
 //thickness=0.1 //x=23.255 //y=7.4 //x2=22.57 //y2=7.4
r391 (  249 299 ) resistor r=4.11603 //w=0.68 //l=0.17 //layer=li \
 //thickness=0.1 //x=22.46 //y=7.23 //x2=22.46 //y2=7.4
r392 (  249 320 ) resistor r=33.1979 //w=0.187 //l=0.485 //layer=li \
 //thickness=0.1 //x=22.46 //y=7.23 //x2=22.46 //y2=6.745
r393 (  248 298 ) resistor r=2.94794 //w=0.34 //l=0.085 //layer=li \
 //thickness=0.1 //x=21.665 //y=7.4 //x2=21.58 //y2=7.4
r394 (  247 299 ) resistor r=2.94794 //w=0.34 //l=0.085 //layer=li \
 //thickness=0.1 //x=22.375 //y=7.4 //x2=22.46 //y2=7.4
r395 (  247 248 ) resistor r=25.4566 //w=0.357 //l=0.71 //layer=li \
 //thickness=0.1 //x=22.375 //y=7.4 //x2=21.665 //y2=7.4
r396 (  241 298 ) resistor r=4.11603 //w=0.68 //l=0.17 //layer=li \
 //thickness=0.1 //x=21.58 //y=7.23 //x2=21.58 //y2=7.4
r397 (  241 319 ) resistor r=33.1979 //w=0.187 //l=0.485 //layer=li \
 //thickness=0.1 //x=21.58 //y=7.23 //x2=21.58 //y2=6.745
r398 (  238 297 ) resistor r=2.94794 //w=0.34 //l=0.085 //layer=li \
 //thickness=0.1 //x=20.785 //y=7.4 //x2=20.7 //y2=7.4
r399 (  238 240 ) resistor r=24.2017 //w=0.357 //l=0.675 //layer=li \
 //thickness=0.1 //x=20.785 //y=7.4 //x2=21.46 //y2=7.4
r400 (  237 298 ) resistor r=2.94794 //w=0.34 //l=0.085 //layer=li \
 //thickness=0.1 //x=21.495 //y=7.4 //x2=21.58 //y2=7.4
r401 (  237 240 ) resistor r=1.2549 //w=0.357 //l=0.035 //layer=li \
 //thickness=0.1 //x=21.495 //y=7.4 //x2=21.46 //y2=7.4
r402 (  231 297 ) resistor r=4.11603 //w=0.68 //l=0.17 //layer=li \
 //thickness=0.1 //x=20.7 //y=7.23 //x2=20.7 //y2=7.4
r403 (  231 318 ) resistor r=56.4706 //w=0.187 //l=0.825 //layer=li \
 //thickness=0.1 //x=20.7 //y=7.23 //x2=20.7 //y2=6.405
r404 (  228 296 ) resistor r=5.4201 //w=0.34 //l=0.17 //layer=li \
 //thickness=0.1 //x=19.78 //y=7.4 //x2=19.61 //y2=7.4
r405 (  228 230 ) resistor r=20.437 //w=0.357 //l=0.57 //layer=li \
 //thickness=0.1 //x=19.78 //y=7.4 //x2=20.35 //y2=7.4
r406 (  227 297 ) resistor r=2.94794 //w=0.34 //l=0.085 //layer=li \
 //thickness=0.1 //x=20.615 //y=7.4 //x2=20.7 //y2=7.4
r407 (  227 230 ) resistor r=9.5014 //w=0.357 //l=0.265 //layer=li \
 //thickness=0.1 //x=20.615 //y=7.4 //x2=20.35 //y2=7.4
r408 (  224 295 ) resistor r=2.94794 //w=0.34 //l=0.085 //layer=li \
 //thickness=0.1 //x=18.915 //y=7.4 //x2=18.83 //y2=7.4
r409 (  223 296 ) resistor r=5.4201 //w=0.34 //l=0.17 //layer=li \
 //thickness=0.1 //x=19.44 //y=7.4 //x2=19.61 //y2=7.4
r410 (  223 224 ) resistor r=18.8235 //w=0.357 //l=0.525 //layer=li \
 //thickness=0.1 //x=19.44 //y=7.4 //x2=18.915 //y2=7.4
r411 (  217 295 ) resistor r=4.11603 //w=0.68 //l=0.17 //layer=li \
 //thickness=0.1 //x=18.83 //y=7.23 //x2=18.83 //y2=7.4
r412 (  217 317 ) resistor r=33.1979 //w=0.187 //l=0.485 //layer=li \
 //thickness=0.1 //x=18.83 //y=7.23 //x2=18.83 //y2=6.745
r413 (  216 293 ) resistor r=2.94794 //w=0.34 //l=0.085 //layer=li \
 //thickness=0.1 //x=18.035 //y=7.4 //x2=17.95 //y2=7.4
r414 (  215 295 ) resistor r=2.94794 //w=0.34 //l=0.085 //layer=li \
 //thickness=0.1 //x=18.745 //y=7.4 //x2=18.83 //y2=7.4
r415 (  215 216 ) resistor r=25.4566 //w=0.357 //l=0.71 //layer=li \
 //thickness=0.1 //x=18.745 //y=7.4 //x2=18.035 //y2=7.4
r416 (  209 293 ) resistor r=4.11603 //w=0.68 //l=0.17 //layer=li \
 //thickness=0.1 //x=17.95 //y=7.23 //x2=17.95 //y2=7.4
r417 (  209 316 ) resistor r=33.1979 //w=0.187 //l=0.485 //layer=li \
 //thickness=0.1 //x=17.95 //y=7.23 //x2=17.95 //y2=6.745
r418 (  206 292 ) resistor r=2.94794 //w=0.34 //l=0.085 //layer=li \
 //thickness=0.1 //x=17.155 //y=7.4 //x2=17.07 //y2=7.4
r419 (  206 208 ) resistor r=21.6919 //w=0.357 //l=0.605 //layer=li \
 //thickness=0.1 //x=17.155 //y=7.4 //x2=17.76 //y2=7.4
r420 (  205 293 ) resistor r=2.94794 //w=0.34 //l=0.085 //layer=li \
 //thickness=0.1 //x=17.865 //y=7.4 //x2=17.95 //y2=7.4
r421 (  205 208 ) resistor r=3.76471 //w=0.357 //l=0.105 //layer=li \
 //thickness=0.1 //x=17.865 //y=7.4 //x2=17.76 //y2=7.4
r422 (  199 292 ) resistor r=4.11603 //w=0.68 //l=0.17 //layer=li \
 //thickness=0.1 //x=17.07 //y=7.23 //x2=17.07 //y2=7.4
r423 (  199 315 ) resistor r=56.4706 //w=0.187 //l=0.825 //layer=li \
 //thickness=0.1 //x=17.07 //y=7.23 //x2=17.07 //y2=6.405
r424 (  196 291 ) resistor r=5.4201 //w=0.34 //l=0.17 //layer=li \
 //thickness=0.1 //x=16.45 //y=7.4 //x2=16.28 //y2=7.4
r425 (  196 198 ) resistor r=7.17087 //w=0.357 //l=0.2 //layer=li \
 //thickness=0.1 //x=16.45 //y=7.4 //x2=16.65 //y2=7.4
r426 (  195 292 ) resistor r=2.94794 //w=0.34 //l=0.085 //layer=li \
 //thickness=0.1 //x=16.985 //y=7.4 //x2=17.07 //y2=7.4
r427 (  195 198 ) resistor r=12.0112 //w=0.357 //l=0.335 //layer=li \
 //thickness=0.1 //x=16.985 //y=7.4 //x2=16.65 //y2=7.4
r428 (  192 290 ) resistor r=2.94794 //w=0.34 //l=0.085 //layer=li \
 //thickness=0.1 //x=15.585 //y=7.4 //x2=15.5 //y2=7.4
r429 (  191 291 ) resistor r=5.4201 //w=0.34 //l=0.17 //layer=li \
 //thickness=0.1 //x=16.11 //y=7.4 //x2=16.28 //y2=7.4
r430 (  191 192 ) resistor r=18.8235 //w=0.357 //l=0.525 //layer=li \
 //thickness=0.1 //x=16.11 //y=7.4 //x2=15.585 //y2=7.4
r431 (  185 290 ) resistor r=4.11603 //w=0.68 //l=0.17 //layer=li \
 //thickness=0.1 //x=15.5 //y=7.23 //x2=15.5 //y2=7.4
r432 (  185 314 ) resistor r=33.1979 //w=0.187 //l=0.485 //layer=li \
 //thickness=0.1 //x=15.5 //y=7.23 //x2=15.5 //y2=6.745
r433 (  182 289 ) resistor r=2.94794 //w=0.34 //l=0.085 //layer=li \
 //thickness=0.1 //x=14.705 //y=7.4 //x2=14.62 //y2=7.4
r434 (  182 184 ) resistor r=16.6723 //w=0.357 //l=0.465 //layer=li \
 //thickness=0.1 //x=14.705 //y=7.4 //x2=15.17 //y2=7.4
r435 (  181 290 ) resistor r=2.94794 //w=0.34 //l=0.085 //layer=li \
 //thickness=0.1 //x=15.415 //y=7.4 //x2=15.5 //y2=7.4
r436 (  181 184 ) resistor r=8.78431 //w=0.357 //l=0.245 //layer=li \
 //thickness=0.1 //x=15.415 //y=7.4 //x2=15.17 //y2=7.4
r437 (  175 289 ) resistor r=4.11603 //w=0.68 //l=0.17 //layer=li \
 //thickness=0.1 //x=14.62 //y=7.23 //x2=14.62 //y2=7.4
r438 (  175 313 ) resistor r=33.1979 //w=0.187 //l=0.485 //layer=li \
 //thickness=0.1 //x=14.62 //y=7.23 //x2=14.62 //y2=6.745
r439 (  172 288 ) resistor r=2.94794 //w=0.34 //l=0.085 //layer=li \
 //thickness=0.1 //x=13.825 //y=7.4 //x2=13.74 //y2=7.4
r440 (  172 174 ) resistor r=8.42577 //w=0.357 //l=0.235 //layer=li \
 //thickness=0.1 //x=13.825 //y=7.4 //x2=14.06 //y2=7.4
r441 (  171 289 ) resistor r=2.94794 //w=0.34 //l=0.085 //layer=li \
 //thickness=0.1 //x=14.535 //y=7.4 //x2=14.62 //y2=7.4
r442 (  171 174 ) resistor r=17.0308 //w=0.357 //l=0.475 //layer=li \
 //thickness=0.1 //x=14.535 //y=7.4 //x2=14.06 //y2=7.4
r443 (  165 288 ) resistor r=4.11603 //w=0.68 //l=0.17 //layer=li \
 //thickness=0.1 //x=13.74 //y=7.23 //x2=13.74 //y2=7.4
r444 (  165 312 ) resistor r=56.4706 //w=0.187 //l=0.825 //layer=li \
 //thickness=0.1 //x=13.74 //y=7.23 //x2=13.74 //y2=6.405
r445 (  164 287 ) resistor r=5.4201 //w=0.34 //l=0.17 //layer=li \
 //thickness=0.1 //x=13.12 //y=7.4 //x2=12.95 //y2=7.4
r446 (  163 288 ) resistor r=2.94794 //w=0.34 //l=0.085 //layer=li \
 //thickness=0.1 //x=13.655 //y=7.4 //x2=13.74 //y2=7.4
r447 (  163 164 ) resistor r=19.1821 //w=0.357 //l=0.535 //layer=li \
 //thickness=0.1 //x=13.655 //y=7.4 //x2=13.12 //y2=7.4
r448 (  158 286 ) resistor r=2.94794 //w=0.34 //l=0.085 //layer=li \
 //thickness=0.1 //x=11.955 //y=7.4 //x2=11.87 //y2=7.4
r449 (  158 160 ) resistor r=22.409 //w=0.357 //l=0.625 //layer=li \
 //thickness=0.1 //x=11.955 //y=7.4 //x2=12.58 //y2=7.4
r450 (  157 287 ) resistor r=5.4201 //w=0.34 //l=0.17 //layer=li \
 //thickness=0.1 //x=12.78 //y=7.4 //x2=12.95 //y2=7.4
r451 (  157 160 ) resistor r=7.17087 //w=0.357 //l=0.2 //layer=li \
 //thickness=0.1 //x=12.78 //y=7.4 //x2=12.58 //y2=7.4
r452 (  151 286 ) resistor r=4.11603 //w=0.68 //l=0.17 //layer=li \
 //thickness=0.1 //x=11.87 //y=7.23 //x2=11.87 //y2=7.4
r453 (  151 311 ) resistor r=33.1979 //w=0.187 //l=0.485 //layer=li \
 //thickness=0.1 //x=11.87 //y=7.23 //x2=11.87 //y2=6.745
r454 (  148 285 ) resistor r=2.94794 //w=0.34 //l=0.085 //layer=li \
 //thickness=0.1 //x=11.075 //y=7.4 //x2=10.99 //y2=7.4
r455 (  148 150 ) resistor r=14.1625 //w=0.357 //l=0.395 //layer=li \
 //thickness=0.1 //x=11.075 //y=7.4 //x2=11.47 //y2=7.4
r456 (  147 286 ) resistor r=2.94794 //w=0.34 //l=0.085 //layer=li \
 //thickness=0.1 //x=11.785 //y=7.4 //x2=11.87 //y2=7.4
r457 (  147 150 ) resistor r=11.2941 //w=0.357 //l=0.315 //layer=li \
 //thickness=0.1 //x=11.785 //y=7.4 //x2=11.47 //y2=7.4
r458 (  141 285 ) resistor r=4.11603 //w=0.68 //l=0.17 //layer=li \
 //thickness=0.1 //x=10.99 //y=7.23 //x2=10.99 //y2=7.4
r459 (  141 310 ) resistor r=33.1979 //w=0.187 //l=0.485 //layer=li \
 //thickness=0.1 //x=10.99 //y=7.23 //x2=10.99 //y2=6.745
r460 (  138 284 ) resistor r=2.94794 //w=0.34 //l=0.085 //layer=li \
 //thickness=0.1 //x=10.195 //y=7.4 //x2=10.11 //y2=7.4
r461 (  138 140 ) resistor r=5.91597 //w=0.357 //l=0.165 //layer=li \
 //thickness=0.1 //x=10.195 //y=7.4 //x2=10.36 //y2=7.4
r462 (  137 285 ) resistor r=2.94794 //w=0.34 //l=0.085 //layer=li \
 //thickness=0.1 //x=10.905 //y=7.4 //x2=10.99 //y2=7.4
r463 (  137 140 ) resistor r=19.5406 //w=0.357 //l=0.545 //layer=li \
 //thickness=0.1 //x=10.905 //y=7.4 //x2=10.36 //y2=7.4
r464 (  131 284 ) resistor r=4.11603 //w=0.68 //l=0.17 //layer=li \
 //thickness=0.1 //x=10.11 //y=7.23 //x2=10.11 //y2=7.4
r465 (  131 309 ) resistor r=33.1979 //w=0.187 //l=0.485 //layer=li \
 //thickness=0.1 //x=10.11 //y=7.23 //x2=10.11 //y2=6.745
r466 (  130 283 ) resistor r=2.94794 //w=0.34 //l=0.085 //layer=li \
 //thickness=0.1 //x=9.315 //y=7.4 //x2=9.23 //y2=7.4
r467 (  129 284 ) resistor r=2.94794 //w=0.34 //l=0.085 //layer=li \
 //thickness=0.1 //x=10.025 //y=7.4 //x2=10.11 //y2=7.4
r468 (  129 130 ) resistor r=25.4566 //w=0.357 //l=0.71 //layer=li \
 //thickness=0.1 //x=10.025 //y=7.4 //x2=9.315 //y2=7.4
r469 (  123 283 ) resistor r=4.11603 //w=0.68 //l=0.17 //layer=li \
 //thickness=0.1 //x=9.23 //y=7.23 //x2=9.23 //y2=7.4
r470 (  123 308 ) resistor r=56.4706 //w=0.187 //l=0.825 //layer=li \
 //thickness=0.1 //x=9.23 //y=7.23 //x2=9.23 //y2=6.405
r471 (  122 281 ) resistor r=5.4201 //w=0.34 //l=0.17 //layer=li \
 //thickness=0.1 //x=8.31 //y=7.4 //x2=8.14 //y2=7.4
r472 (  121 283 ) resistor r=2.94794 //w=0.34 //l=0.085 //layer=li \
 //thickness=0.1 //x=9.145 //y=7.4 //x2=9.23 //y2=7.4
r473 (  121 122 ) resistor r=29.9384 //w=0.357 //l=0.835 //layer=li \
 //thickness=0.1 //x=9.145 //y=7.4 //x2=8.31 //y2=7.4
r474 (  116 280 ) resistor r=2.94794 //w=0.34 //l=0.085 //layer=li \
 //thickness=0.1 //x=7.145 //y=7.4 //x2=7.06 //y2=7.4
r475 (  116 118 ) resistor r=22.409 //w=0.357 //l=0.625 //layer=li \
 //thickness=0.1 //x=7.145 //y=7.4 //x2=7.77 //y2=7.4
r476 (  115 281 ) resistor r=5.4201 //w=0.34 //l=0.17 //layer=li \
 //thickness=0.1 //x=7.97 //y=7.4 //x2=8.14 //y2=7.4