// File: DFFSNRNX1.spi.pex
// Created: Tue Oct 15 15:47:46 2024
// Program "Calibre xRC"
// Version "v2023.2_27.15"
// Nominal Temperature: 30C
// Circuit Temperature: 30C
// 
simulator lang=spectre
subckt PM_DFFSNRNX1\%GND ( 1 51 55 58 63 73 81 91 99 109 117 127 135 145 160 \
 164 166 168 170 172 174 175 176 177 178 179 )
c308 ( 179 0 ) capacitor c=0.0226224f //x=24.935 //y=0.875
c309 ( 178 0 ) capacitor c=0.0226224f //x=20.125 //y=0.875
c310 ( 177 0 ) capacitor c=0.0226224f //x=15.315 //y=0.875
c311 ( 176 0 ) capacitor c=0.0226413f //x=10.505 //y=0.875
c312 ( 175 0 ) capacitor c=0.0226413f //x=5.695 //y=0.875
c313 ( 174 0 ) capacitor c=0.0226959f //x=0.885 //y=0.875
c314 ( 173 0 ) capacitor c=0.00440144f //x=25.125 //y=0
c315 ( 172 0 ) capacitor c=0.108597f //x=24.05 //y=0
c316 ( 171 0 ) capacitor c=0.00440144f //x=20.315 //y=0
c317 ( 170 0 ) capacitor c=0.108683f //x=19.24 //y=0
c318 ( 169 0 ) capacitor c=0.00440144f //x=15.505 //y=0
c319 ( 168 0 ) capacitor c=0.108636f //x=14.43 //y=0
c320 ( 167 0 ) capacitor c=0.00440144f //x=10.695 //y=0
c321 ( 166 0 ) capacitor c=0.107929f //x=9.62 //y=0
c322 ( 165 0 ) capacitor c=0.00440144f //x=5.885 //y=0
c323 ( 164 0 ) capacitor c=0.108262f //x=4.81 //y=0
c324 ( 163 0 ) capacitor c=0.00440144f //x=1.075 //y=0
c325 ( 160 0 ) capacitor c=0.321926f //x=28.12 //y=0
c326 ( 145 0 ) capacitor c=0.0339482f //x=25.04 //y=0
c327 ( 135 0 ) capacitor c=0.133515f //x=23.88 //y=0
c328 ( 127 0 ) capacitor c=0.0339482f //x=20.23 //y=0
c329 ( 117 0 ) capacitor c=0.133515f //x=19.07 //y=0
c330 ( 109 0 ) capacitor c=0.0339482f //x=15.42 //y=0
c331 ( 99 0 ) capacitor c=0.133551f //x=14.26 //y=0
c332 ( 91 0 ) capacitor c=0.0339619f //x=10.61 //y=0
c333 ( 81 0 ) capacitor c=0.13365f //x=9.45 //y=0
c334 ( 73 0 ) capacitor c=0.0339619f //x=5.8 //y=0
c335 ( 63 0 ) capacitor c=0.131658f //x=4.64 //y=0
c336 ( 58 0 ) capacitor c=0.178285f //x=0.74 //y=0
c337 ( 55 0 ) capacitor c=0.0367385f //x=0.99 //y=0
c338 ( 51 0 ) capacitor c=0.897892f //x=28.12 //y=0
r339 (  158 160 ) resistor r=39.7983 //w=0.357 //l=1.11 //layer=li \
 //thickness=0.1 //x=27.01 //y=0 //x2=28.12 //y2=0
r340 (  156 158 ) resistor r=39.7983 //w=0.357 //l=1.11 //layer=li \
 //thickness=0.1 //x=25.9 //y=0 //x2=27.01 //y2=0
r341 (  154 173 ) resistor r=2.94794 //w=0.34 //l=0.085 //layer=li \
 //thickness=0.1 //x=25.21 //y=0 //x2=25.125 //y2=0
r342 (  154 156 ) resistor r=24.7395 //w=0.357 //l=0.69 //layer=li \
 //thickness=0.1 //x=25.21 //y=0 //x2=25.9 //y2=0
r343 (  149 173 ) resistor r=4.11603 //w=0.68 //l=0.17 //layer=li \
 //thickness=0.1 //x=25.125 //y=0.17 //x2=25.125 //y2=0
r344 (  149 179 ) resistor r=54.4171 //w=0.187 //l=0.795 //layer=li \
 //thickness=0.1 //x=25.125 //y=0.17 //x2=25.125 //y2=0.965
r345 (  146 172 ) resistor r=5.4201 //w=0.34 //l=0.17 //layer=li \
 //thickness=0.1 //x=24.22 //y=0 //x2=24.05 //y2=0
r346 (  146 148 ) resistor r=20.437 //w=0.357 //l=0.57 //layer=li \
 //thickness=0.1 //x=24.22 //y=0 //x2=24.79 //y2=0
r347 (  145 173 ) resistor r=2.94794 //w=0.34 //l=0.085 //layer=li \
 //thickness=0.1 //x=25.04 //y=0 //x2=25.125 //y2=0
r348 (  145 148 ) resistor r=8.96359 //w=0.357 //l=0.25 //layer=li \
 //thickness=0.1 //x=25.04 //y=0 //x2=24.79 //y2=0
r349 (  140 142 ) resistor r=39.7983 //w=0.357 //l=1.11 //layer=li \
 //thickness=0.1 //x=22.2 //y=0 //x2=23.31 //y2=0
r350 (  138 140 ) resistor r=39.7983 //w=0.357 //l=1.11 //layer=li \
 //thickness=0.1 //x=21.09 //y=0 //x2=22.2 //y2=0
r351 (  136 171 ) resistor r=2.94794 //w=0.34 //l=0.085 //layer=li \
 //thickness=0.1 //x=20.4 //y=0 //x2=20.315 //y2=0
r352 (  136 138 ) resistor r=24.7395 //w=0.357 //l=0.69 //layer=li \
 //thickness=0.1 //x=20.4 //y=0 //x2=21.09 //y2=0
r353 (  135 172 ) resistor r=5.4201 //w=0.34 //l=0.17 //layer=li \
 //thickness=0.1 //x=23.88 //y=0 //x2=24.05 //y2=0
r354 (  135 142 ) resistor r=20.437 //w=0.357 //l=0.57 //layer=li \
 //thickness=0.1 //x=23.88 //y=0 //x2=23.31 //y2=0
r355 (  131 171 ) resistor r=4.11603 //w=0.68 //l=0.17 //layer=li \
 //thickness=0.1 //x=20.315 //y=0.17 //x2=20.315 //y2=0
r356 (  131 178 ) resistor r=54.4171 //w=0.187 //l=0.795 //layer=li \
 //thickness=0.1 //x=20.315 //y=0.17 //x2=20.315 //y2=0.965
r357 (  128 170 ) resistor r=5.4201 //w=0.34 //l=0.17 //layer=li \
 //thickness=0.1 //x=19.41 //y=0 //x2=19.24 //y2=0
r358 (  128 130 ) resistor r=20.437 //w=0.357 //l=0.57 //layer=li \
 //thickness=0.1 //x=19.41 //y=0 //x2=19.98 //y2=0
r359 (  127 171 ) resistor r=2.94794 //w=0.34 //l=0.085 //layer=li \
 //thickness=0.1 //x=20.23 //y=0 //x2=20.315 //y2=0
r360 (  127 130 ) resistor r=8.96359 //w=0.357 //l=0.25 //layer=li \
 //thickness=0.1 //x=20.23 //y=0 //x2=19.98 //y2=0
r361 (  122 124 ) resistor r=39.7983 //w=0.357 //l=1.11 //layer=li \
 //thickness=0.1 //x=17.39 //y=0 //x2=18.5 //y2=0
r362 (  120 122 ) resistor r=39.7983 //w=0.357 //l=1.11 //layer=li \
 //thickness=0.1 //x=16.28 //y=0 //x2=17.39 //y2=0
r363 (  118 169 ) resistor r=2.94794 //w=0.34 //l=0.085 //layer=li \
 //thickness=0.1 //x=15.59 //y=0 //x2=15.505 //y2=0
r364 (  118 120 ) resistor r=24.7395 //w=0.357 //l=0.69 //layer=li \
 //thickness=0.1 //x=15.59 //y=0 //x2=16.28 //y2=0
r365 (  117 170 ) resistor r=5.4201 //w=0.34 //l=0.17 //layer=li \
 //thickness=0.1 //x=19.07 //y=0 //x2=19.24 //y2=0
r366 (  117 124 ) resistor r=20.437 //w=0.357 //l=0.57 //layer=li \
 //thickness=0.1 //x=19.07 //y=0 //x2=18.5 //y2=0
r367 (  113 169 ) resistor r=4.11603 //w=0.68 //l=0.17 //layer=li \
 //thickness=0.1 //x=15.505 //y=0.17 //x2=15.505 //y2=0
r368 (  113 177 ) resistor r=54.4171 //w=0.187 //l=0.795 //layer=li \
 //thickness=0.1 //x=15.505 //y=0.17 //x2=15.505 //y2=0.965
r369 (  110 168 ) resistor r=5.4201 //w=0.34 //l=0.17 //layer=li \
 //thickness=0.1 //x=14.6 //y=0 //x2=14.43 //y2=0
r370 (  110 112 ) resistor r=20.437 //w=0.357 //l=0.57 //layer=li \
 //thickness=0.1 //x=14.6 //y=0 //x2=15.17 //y2=0
r371 (  109 169 ) resistor r=2.94794 //w=0.34 //l=0.085 //layer=li \
 //thickness=0.1 //x=15.42 //y=0 //x2=15.505 //y2=0
r372 (  109 112 ) resistor r=8.96359 //w=0.357 //l=0.25 //layer=li \
 //thickness=0.1 //x=15.42 //y=0 //x2=15.17 //y2=0
r373 (  104 106 ) resistor r=39.7983 //w=0.357 //l=1.11 //layer=li \
 //thickness=0.1 //x=12.58 //y=0 //x2=13.69 //y2=0
r374 (  102 104 ) resistor r=39.7983 //w=0.357 //l=1.11 //layer=li \
 //thickness=0.1 //x=11.47 //y=0 //x2=12.58 //y2=0
r375 (  100 167 ) resistor r=2.94794 //w=0.34 //l=0.085 //layer=li \
 //thickness=0.1 //x=10.78 //y=0 //x2=10.695 //y2=0
r376 (  100 102 ) resistor r=24.7395 //w=0.357 //l=0.69 //layer=li \
 //thickness=0.1 //x=10.78 //y=0 //x2=11.47 //y2=0
r377 (  99 168 ) resistor r=5.4201 //w=0.34 //l=0.17 //layer=li \
 //thickness=0.1 //x=14.26 //y=0 //x2=14.43 //y2=0
r378 (  99 106 ) resistor r=20.437 //w=0.357 //l=0.57 //layer=li \
 //thickness=0.1 //x=14.26 //y=0 //x2=13.69 //y2=0
r379 (  95 167 ) resistor r=4.11603 //w=0.68 //l=0.17 //layer=li \
 //thickness=0.1 //x=10.695 //y=0.17 //x2=10.695 //y2=0
r380 (  95 176 ) resistor r=54.4171 //w=0.187 //l=0.795 //layer=li \
 //thickness=0.1 //x=10.695 //y=0.17 //x2=10.695 //y2=0.965
r381 (  92 166 ) resistor r=5.4201 //w=0.34 //l=0.17 //layer=li \
 //thickness=0.1 //x=9.79 //y=0 //x2=9.62 //y2=0
r382 (  92 94 ) resistor r=20.437 //w=0.357 //l=0.57 //layer=li \
 //thickness=0.1 //x=9.79 //y=0 //x2=10.36 //y2=0
r383 (  91 167 ) resistor r=2.94794 //w=0.34 //l=0.085 //layer=li \
 //thickness=0.1 //x=10.61 //y=0 //x2=10.695 //y2=0
r384 (  91 94 ) resistor r=8.96359 //w=0.357 //l=0.25 //layer=li \
 //thickness=0.1 //x=10.61 //y=0 //x2=10.36 //y2=0
r385 (  86 88 ) resistor r=39.7983 //w=0.357 //l=1.11 //layer=li \
 //thickness=0.1 //x=7.77 //y=0 //x2=8.88 //y2=0
r386 (  84 86 ) resistor r=39.7983 //w=0.357 //l=1.11 //layer=li \
 //thickness=0.1 //x=6.66 //y=0 //x2=7.77 //y2=0
r387 (  82 165 ) resistor r=2.94794 //w=0.34 //l=0.085 //layer=li \
 //thickness=0.1 //x=5.97 //y=0 //x2=5.885 //y2=0
r388 (  82 84 ) resistor r=24.7395 //w=0.357 //l=0.69 //layer=li \
 //thickness=0.1 //x=5.97 //y=0 //x2=6.66 //y2=0
r389 (  81 166 ) resistor r=5.4201 //w=0.34 //l=0.17 //layer=li \
 //thickness=0.1 //x=9.45 //y=0 //x2=9.62 //y2=0
r390 (  81 88 ) resistor r=20.437 //w=0.357 //l=0.57 //layer=li \
 //thickness=0.1 //x=9.45 //y=0 //x2=8.88 //y2=0
r391 (  77 165 ) resistor r=4.11603 //w=0.68 //l=0.17 //layer=li \
 //thickness=0.1 //x=5.885 //y=0.17 //x2=5.885 //y2=0
r392 (  77 175 ) resistor r=54.4171 //w=0.187 //l=0.795 //layer=li \
 //thickness=0.1 //x=5.885 //y=0.17 //x2=5.885 //y2=0.965
r393 (  74 164 ) resistor r=5.4201 //w=0.34 //l=0.17 //layer=li \
 //thickness=0.1 //x=4.98 //y=0 //x2=4.81 //y2=0
r394 (  74 76 ) resistor r=20.437 //w=0.357 //l=0.57 //layer=li \
 //thickness=0.1 //x=4.98 //y=0 //x2=5.55 //y2=0
r395 (  73 165 ) resistor r=2.94794 //w=0.34 //l=0.085 //layer=li \
 //thickness=0.1 //x=5.8 //y=0 //x2=5.885 //y2=0
r396 (  73 76 ) resistor r=8.96359 //w=0.357 //l=0.25 //layer=li \
 //thickness=0.1 //x=5.8 //y=0 //x2=5.55 //y2=0
r397 (  68 70 ) resistor r=39.7983 //w=0.357 //l=1.11 //layer=li \
 //thickness=0.1 //x=2.96 //y=0 //x2=4.07 //y2=0
r398 (  66 68 ) resistor r=39.7983 //w=0.357 //l=1.11 //layer=li \
 //thickness=0.1 //x=1.85 //y=0 //x2=2.96 //y2=0
r399 (  64 163 ) resistor r=2.94794 //w=0.34 //l=0.085 //layer=li \
 //thickness=0.1 //x=1.16 //y=0 //x2=1.075 //y2=0
r400 (  64 66 ) resistor r=24.7395 //w=0.357 //l=0.69 //layer=li \
 //thickness=0.1 //x=1.16 //y=0 //x2=1.85 //y2=0
r401 (  63 164 ) resistor r=5.4201 //w=0.34 //l=0.17 //layer=li \
 //thickness=0.1 //x=4.64 //y=0 //x2=4.81 //y2=0
r402 (  63 70 ) resistor r=20.437 //w=0.357 //l=0.57 //layer=li \
 //thickness=0.1 //x=4.64 //y=0 //x2=4.07 //y2=0
r403 (  59 163 ) resistor r=4.11603 //w=0.68 //l=0.17 //layer=li \
 //thickness=0.1 //x=1.075 //y=0.17 //x2=1.075 //y2=0
r404 (  59 174 ) resistor r=54.4171 //w=0.187 //l=0.795 //layer=li \
 //thickness=0.1 //x=1.075 //y=0.17 //x2=1.075 //y2=0.965
r405 (  55 163 ) resistor r=2.94794 //w=0.34 //l=0.085 //layer=li \
 //thickness=0.1 //x=0.99 //y=0 //x2=1.075 //y2=0
r406 (  55 58 ) resistor r=8.96359 //w=0.357 //l=0.25 //layer=li \
 //thickness=0.1 //x=0.99 //y=0 //x2=0.74 //y2=0
r407 (  51 160 ) resistor r=3.1 //w=0.17 //l=0.51 //layer=mcon //count=3 \
 //x=28.12 //y=0 //x2=28.12 //y2=0
r408 (  49 158 ) resistor r=3.1 //w=0.17 //l=0.51 //layer=mcon //count=3 \
 //x=27.01 //y=0 //x2=27.01 //y2=0
r409 (  49 51 ) resistor r=0.460963 //w=0.301 //l=1.11 //layer=m1 \
 //thickness=0.36 //x=27.01 //y=0 //x2=28.12 //y2=0
r410 (  47 156 ) resistor r=3.1 //w=0.17 //l=0.51 //layer=mcon //count=3 \
 //x=25.9 //y=0 //x2=25.9 //y2=0
r411 (  47 49 ) resistor r=0.460963 //w=0.301 //l=1.11 //layer=m1 \
 //thickness=0.36 //x=25.9 //y=0 //x2=27.01 //y2=0
r412 (  45 148 ) resistor r=3.1 //w=0.17 //l=0.51 //layer=mcon //count=3 \
 //x=24.79 //y=0 //x2=24.79 //y2=0
r413 (  45 47 ) resistor r=0.460963 //w=0.301 //l=1.11 //layer=m1 \
 //thickness=0.36 //x=24.79 //y=0 //x2=25.9 //y2=0
r414 (  43 142 ) resistor r=3.1 //w=0.17 //l=0.51 //layer=mcon //count=3 \
 //x=23.31 //y=0 //x2=23.31 //y2=0
r415 (  43 45 ) resistor r=0.614618 //w=0.301 //l=1.48 //layer=m1 \
 //thickness=0.36 //x=23.31 //y=0 //x2=24.79 //y2=0
r416 (  41 140 ) resistor r=3.1 //w=0.17 //l=0.51 //layer=mcon //count=3 \
 //x=22.2 //y=0 //x2=22.2 //y2=0
r417 (  41 43 ) resistor r=0.460963 //w=0.301 //l=1.11 //layer=m1 \
 //thickness=0.36 //x=22.2 //y=0 //x2=23.31 //y2=0
r418 (  39 138 ) resistor r=3.1 //w=0.17 //l=0.51 //layer=mcon //count=3 \
 //x=21.09 //y=0 //x2=21.09 //y2=0
r419 (  39 41 ) resistor r=0.460963 //w=0.301 //l=1.11 //layer=m1 \
 //thickness=0.36 //x=21.09 //y=0 //x2=22.2 //y2=0
r420 (  37 130 ) resistor r=3.1 //w=0.17 //l=0.51 //layer=mcon //count=3 \
 //x=19.98 //y=0 //x2=19.98 //y2=0
r421 (  37 39 ) resistor r=0.460963 //w=0.301 //l=1.11 //layer=m1 \
 //thickness=0.36 //x=19.98 //y=0 //x2=21.09 //y2=0
r422 (  35 124 ) resistor r=3.1 //w=0.17 //l=0.51 //layer=mcon //count=3 \
 //x=18.5 //y=0 //x2=18.5 //y2=0
r423 (  35 37 ) resistor r=0.614618 //w=0.301 //l=1.48 //layer=m1 \
 //thickness=0.36 //x=18.5 //y=0 //x2=19.98 //y2=0
r424 (  33 122 ) resistor r=3.1 //w=0.17 //l=0.51 //layer=mcon //count=3 \
 //x=17.39 //y=0 //x2=17.39 //y2=0
r425 (  33 35 ) resistor r=0.460963 //w=0.301 //l=1.11 //layer=m1 \
 //thickness=0.36 //x=17.39 //y=0 //x2=18.5 //y2=0
r426 (  31 120 ) resistor r=3.1 //w=0.17 //l=0.51 //layer=mcon //count=3 \
 //x=16.28 //y=0 //x2=16.28 //y2=0
r427 (  31 33 ) resistor r=0.460963 //w=0.301 //l=1.11 //layer=m1 \
 //thickness=0.36 //x=16.28 //y=0 //x2=17.39 //y2=0
r428 (  29 112 ) resistor r=3.1 //w=0.17 //l=0.51 //layer=mcon //count=3 \
 //x=15.17 //y=0 //x2=15.17 //y2=0
r429 (  29 31 ) resistor r=0.460963 //w=0.301 //l=1.11 //layer=m1 \
 //thickness=0.36 //x=15.17 //y=0 //x2=16.28 //y2=0
r430 (  26 106 ) resistor r=3.1 //w=0.17 //l=0.51 //layer=mcon //count=3 \
 //x=13.69 //y=0 //x2=13.69 //y2=0
r431 (  24 104 ) resistor r=3.1 //w=0.17 //l=0.51 //layer=mcon //count=3 \
 //x=12.58 //y=0 //x2=12.58 //y2=0
r432 (  24 26 ) resistor r=0.460963 //w=0.301 //l=1.11 //layer=m1 \
 //thickness=0.36 //x=12.58 //y=0 //x2=13.69 //y2=0
r433 (  22 102 ) resistor r=3.1 //w=0.17 //l=0.51 //layer=mcon //count=3 \
 //x=11.47 //y=0 //x2=11.47 //y2=0
r434 (  22 24 ) resistor r=0.460963 //w=0.301 //l=1.11 //layer=m1 \
 //thickness=0.36 //x=11.47 //y=0 //x2=12.58 //y2=0
r435 (  20 94 ) resistor r=3.1 //w=0.17 //l=0.51 //layer=mcon //count=3 \
 //x=10.36 //y=0 //x2=10.36 //y2=0
r436 (  20 22 ) resistor r=0.460963 //w=0.301 //l=1.11 //layer=m1 \
 //thickness=0.36 //x=10.36 //y=0 //x2=11.47 //y2=0
r437 (  18 88 ) resistor r=3.1 //w=0.17 //l=0.51 //layer=mcon //count=3 \
 //x=8.88 //y=0 //x2=8.88 //y2=0
r438 (  18 20 ) resistor r=0.614618 //w=0.301 //l=1.48 //layer=m1 \
 //thickness=0.36 //x=8.88 //y=0 //x2=10.36 //y2=0
r439 (  16 86 ) resistor r=3.1 //w=0.17 //l=0.51 //layer=mcon //count=3 \
 //x=7.77 //y=0 //x2=7.77 //y2=0
r440 (  16 18 ) resistor r=0.460963 //w=0.301 //l=1.11 //layer=m1 \
 //thickness=0.36 //x=7.77 //y=0 //x2=8.88 //y2=0
r441 (  14 84 ) resistor r=3.1 //w=0.17 //l=0.51 //layer=mcon //count=3 \
 //x=6.66 //y=0 //x2=6.66 //y2=0
r442 (  14 16 ) resistor r=0.460963 //w=0.301 //l=1.11 //layer=m1 \
 //thickness=0.36 //x=6.66 //y=0 //x2=7.77 //y2=0
r443 (  12 76 ) resistor r=3.1 //w=0.17 //l=0.51 //layer=mcon //count=3 \
 //x=5.55 //y=0 //x2=5.55 //y2=0
r444 (  12 14 ) resistor r=0.460963 //w=0.301 //l=1.11 //layer=m1 \
 //thickness=0.36 //x=5.55 //y=0 //x2=6.66 //y2=0
r445 (  10 70 ) resistor r=3.1 //w=0.17 //l=0.51 //layer=mcon //count=3 \
 //x=4.07 //y=0 //x2=4.07 //y2=0
r446 (  10 12 ) resistor r=0.614618 //w=0.301 //l=1.48 //layer=m1 \
 //thickness=0.36 //x=4.07 //y=0 //x2=5.55 //y2=0
r447 (  8 68 ) resistor r=3.1 //w=0.17 //l=0.51 //layer=mcon //count=3 \
 //x=2.96 //y=0 //x2=2.96 //y2=0
r448 (  8 10 ) resistor r=0.460963 //w=0.301 //l=1.11 //layer=m1 \
 //thickness=0.36 //x=2.96 //y=0 //x2=4.07 //y2=0
r449 (  6 66 ) resistor r=3.1 //w=0.17 //l=0.51 //layer=mcon //count=3 \
 //x=1.85 //y=0 //x2=1.85 //y2=0
r450 (  6 8 ) resistor r=0.460963 //w=0.301 //l=1.11 //layer=m1 \
 //thickness=0.36 //x=1.85 //y=0 //x2=2.96 //y2=0
r451 (  3 58 ) resistor r=3.1 //w=0.17 //l=0.51 //layer=mcon //count=3 \
 //x=0.74 //y=0 //x2=0.74 //y2=0
r452 (  3 6 ) resistor r=0.460963 //w=0.301 //l=1.11 //layer=m1 \
 //thickness=0.36 //x=0.74 //y=0 //x2=1.85 //y2=0
r453 (  1 29 ) resistor r=0.307309 //w=0.301 //l=0.74 //layer=m1 \
 //thickness=0.36 //x=14.43 //y=0 //x2=15.17 //y2=0
r454 (  1 26 ) resistor r=0.307309 //w=0.301 //l=0.74 //layer=m1 \
 //thickness=0.36 //x=14.43 //y=0 //x2=13.69 //y2=0
ends PM_DFFSNRNX1\%GND

subckt PM_DFFSNRNX1\%VDD ( 1 51 58 65 75 83 93 99 109 119 127 137 143 153 163 \
 171 181 187 197 207 215 225 231 241 251 259 269 275 285 295 303 316 323 328 \
 333 338 343 348 349 350 351 352 353 354 355 356 357 358 359 360 361 362 363 \
 364 365 366 367 368 369 370 371 )
c342 ( 371 0 ) capacitor c=0.0453711f //x=27.635 //y=5.02
c343 ( 370 0 ) capacitor c=0.02424f //x=26.755 //y=5.02
c344 ( 369 0 ) capacitor c=0.02424f //x=25.875 //y=5.02
c345 ( 368 0 ) capacitor c=0.0531793f //x=25.005 //y=5.02
c346 ( 367 0 ) capacitor c=0.0453059f //x=22.825 //y=5.02
c347 ( 366 0 ) capacitor c=0.02424f //x=21.945 //y=5.02
c348 ( 365 0 ) capacitor c=0.024152f //x=21.065 //y=5.02
c349 ( 364 0 ) capacitor c=0.053132f //x=20.195 //y=5.02
c350 ( 363 0 ) capacitor c=0.0452179f //x=18.015 //y=5.02
c351 ( 362 0 ) capacitor c=0.024152f //x=17.135 //y=5.02
c352 ( 361 0 ) capacitor c=0.024152f //x=16.255 //y=5.02
c353 ( 360 0 ) capacitor c=0.053132f //x=15.385 //y=5.02
c354 ( 359 0 ) capacitor c=0.0452179f //x=13.205 //y=5.02
c355 ( 358 0 ) capacitor c=0.024152f //x=12.325 //y=5.02
c356 ( 357 0 ) capacitor c=0.024152f //x=11.445 //y=5.02
c357 ( 356 0 ) capacitor c=0.053132f //x=10.575 //y=5.02
c358 ( 355 0 ) capacitor c=0.0452179f //x=8.395 //y=5.02
c359 ( 354 0 ) capacitor c=0.024152f //x=7.515 //y=5.02
c360 ( 353 0 ) capacitor c=0.024152f //x=6.635 //y=5.02
c361 ( 352 0 ) capacitor c=0.053132f //x=5.765 //y=5.02
c362 ( 351 0 ) capacitor c=0.0452179f //x=3.585 //y=5.02
c363 ( 350 0 ) capacitor c=0.024152f //x=2.705 //y=5.02
c364 ( 349 0 ) capacitor c=0.0244794f //x=1.825 //y=5.02
c365 ( 348 0 ) capacitor c=0.0533644f //x=0.955 //y=5.02
c366 ( 347 0 ) capacitor c=0.00591168f //x=27.78 //y=7.4
c367 ( 346 0 ) capacitor c=0.00591168f //x=26.9 //y=7.4
c368 ( 345 0 ) capacitor c=0.00591168f //x=26.02 //y=7.4
c369 ( 344 0 ) capacitor c=0.00591168f //x=25.14 //y=7.4
c370 ( 343 0 ) capacitor c=0.157232f //x=24.05 //y=7.4
c371 ( 342 0 ) capacitor c=0.00591168f //x=22.97 //y=7.4
c372 ( 341 0 ) capacitor c=0.00591168f //x=22.09 //y=7.4
c373 ( 340 0 ) capacitor c=0.00591168f //x=21.21 //y=7.4
c374 ( 339 0 ) capacitor c=0.00591168f //x=20.33 //y=7.4
c375 ( 338 0 ) capacitor c=0.154937f //x=19.24 //y=7.4
c376 ( 337 0 ) capacitor c=0.00591168f //x=18.16 //y=7.4
c377 ( 336 0 ) capacitor c=0.00591168f //x=17.28 //y=7.4
c378 ( 335 0 ) capacitor c=0.00591168f //x=16.4 //y=7.4
c379 ( 334 0 ) capacitor c=0.00591168f //x=15.52 //y=7.4
c380 ( 333 0 ) capacitor c=0.155149f //x=14.43 //y=7.4
c381 ( 332 0 ) capacitor c=0.00591168f //x=13.35 //y=7.4
c382 ( 331 0 ) capacitor c=0.00591168f //x=12.47 //y=7.4
c383 ( 330 0 ) capacitor c=0.00591168f //x=11.59 //y=7.4
c384 ( 329 0 ) capacitor c=0.00591168f //x=10.71 //y=7.4
c385 ( 328 0 ) capacitor c=0.15516f //x=9.62 //y=7.4
c386 ( 327 0 ) capacitor c=0.00591168f //x=8.54 //y=7.4
c387 ( 326 0 ) capacitor c=0.00591168f //x=7.66 //y=7.4
c388 ( 325 0 ) capacitor c=0.00591168f //x=6.78 //y=7.4
c389 ( 324 0 ) capacitor c=0.00591168f //x=5.9 //y=7.4
c390 ( 323 0 ) capacitor c=0.159704f //x=4.81 //y=7.4
c391 ( 322 0 ) capacitor c=0.00591168f //x=3.73 //y=7.4
c392 ( 321 0 ) capacitor c=0.00591168f //x=2.85 //y=7.4
c393 ( 320 0 ) capacitor c=0.00591168f //x=1.97 //y=7.4
c394 ( 319 0 ) capacitor c=0.00591168f //x=1.09 //y=7.4
c395 ( 316 0 ) capacitor c=0.272103f //x=28.12 //y=7.4
c396 ( 303 0 ) capacitor c=0.0288171f //x=27.695 //y=7.4
c397 ( 295 0 ) capacitor c=0.0287757f //x=26.815 //y=7.4
c398 ( 285 0 ) capacitor c=0.028511f //x=25.935 //y=7.4
c399 ( 275 0 ) capacitor c=0.0383672f //x=25.055 //y=7.4
c400 ( 269 0 ) capacitor c=0.0395236f //x=23.88 //y=7.4
c401 ( 259 0 ) capacitor c=0.0288769f //x=22.885 //y=7.4
c402 ( 251 0 ) capacitor c=0.0287624f //x=22.005 //y=7.4
c403 ( 241 0 ) capacitor c=0.0284966f //x=21.125 //y=7.4
c404 ( 231 0 ) capacitor c=0.0383672f //x=20.245 //y=7.4
c405 ( 225 0 ) capacitor c=0.0394667f //x=19.07 //y=7.4
c406 ( 215 0 ) capacitor c=0.028847f //x=18.075 //y=7.4
c407 ( 207 0 ) capacitor c=0.0287514f //x=17.195 //y=7.4
c408 ( 197 0 ) capacitor c=0.0284966f //x=16.315 //y=7.4
c409 ( 187 0 ) capacitor c=0.0383672f //x=15.435 //y=7.4
c410 ( 181 0 ) capacitor c=0.0394667f //x=14.26 //y=7.4
c411 ( 171 0 ) capacitor c=0.0288488f //x=13.265 //y=7.4
c412 ( 163 0 ) capacitor c=0.0287514f //x=12.385 //y=7.4
c413 ( 153 0 ) capacitor c=0.0284966f //x=11.505 //y=7.4
c414 ( 143 0 ) capacitor c=0.0383672f //x=10.625 //y=7.4
c415 ( 137 0 ) capacitor c=0.0394667f //x=9.45 //y=7.4
c416 ( 127 0 ) capacitor c=0.0288488f //x=8.455 //y=7.4
c417 ( 119 0 ) capacitor c=0.0287514f //x=7.575 //y=7.4
c418 ( 109 0 ) capacitor c=0.0284966f //x=6.695 //y=7.4
c419 ( 99 0 ) capacitor c=0.0383672f //x=5.815 //y=7.4
c420 ( 93 0 ) capacitor c=0.0394667f //x=4.64 //y=7.4
c421 ( 83 0 ) capacitor c=0.0288488f //x=3.645 //y=7.4
c422 ( 75 0 ) capacitor c=0.0287505f //x=2.765 //y=7.4
c423 ( 65 0 ) capacitor c=0.0292055f //x=1.885 //y=7.4
c424 ( 58 0 ) capacitor c=0.234703f //x=0.74 //y=7.4
c425 ( 55 0 ) capacitor c=0.0452081f //x=1.005 //y=7.4
c426 ( 51 0 ) capacitor c=1.00405f //x=28.12 //y=7.4
r427 (  314 347 ) resistor r=2.94794 //w=0.34 //l=0.085 //layer=li \
 //thickness=0.1 //x=27.865 //y=7.4 //x2=27.78 //y2=7.4
r428 (  314 316 ) resistor r=9.14286 //w=0.357 //l=0.255 //layer=li \
 //thickness=0.1 //x=27.865 //y=7.4 //x2=28.12 //y2=7.4
r429 (  307 347 ) resistor r=4.11603 //w=0.68 //l=0.17 //layer=li \
 //thickness=0.1 //x=27.78 //y=7.23 //x2=27.78 //y2=7.4
r430 (  307 371 ) resistor r=33.1979 //w=0.187 //l=0.485 //layer=li \
 //thickness=0.1 //x=27.78 //y=7.23 //x2=27.78 //y2=6.745
r431 (  304 346 ) resistor r=2.94794 //w=0.34 //l=0.085 //layer=li \
 //thickness=0.1 //x=26.985 //y=7.4 //x2=26.9 //y2=7.4
r432 (  304 306 ) resistor r=0.896359 //w=0.357 //l=0.025 //layer=li \
 //thickness=0.1 //x=26.985 //y=7.4 //x2=27.01 //y2=7.4
r433 (  303 347 ) resistor r=2.94794 //w=0.34 //l=0.085 //layer=li \
 //thickness=0.1 //x=27.695 //y=7.4 //x2=27.78 //y2=7.4
r434 (  303 306 ) resistor r=24.5602 //w=0.357 //l=0.685 //layer=li \
 //thickness=0.1 //x=27.695 //y=7.4 //x2=27.01 //y2=7.4
r435 (  297 346 ) resistor r=4.11603 //w=0.68 //l=0.17 //layer=li \
 //thickness=0.1 //x=26.9 //y=7.23 //x2=26.9 //y2=7.4
r436 (  297 370 ) resistor r=33.1979 //w=0.187 //l=0.485 //layer=li \
 //thickness=0.1 //x=26.9 //y=7.23 //x2=26.9 //y2=6.745
r437 (  296 345 ) resistor r=2.94794 //w=0.34 //l=0.085 //layer=li \
 //thickness=0.1 //x=26.105 //y=7.4 //x2=26.02 //y2=7.4
r438 (  295 346 ) resistor r=2.94794 //w=0.34 //l=0.085 //layer=li \
 //thickness=0.1 //x=26.815 //y=7.4 //x2=26.9 //y2=7.4
r439 (  295 296 ) resistor r=25.4566 //w=0.357 //l=0.71 //layer=li \
 //thickness=0.1 //x=26.815 //y=7.4 //x2=26.105 //y2=7.4
r440 (  289 345 ) resistor r=4.11603 //w=0.68 //l=0.17 //layer=li \
 //thickness=0.1 //x=26.02 //y=7.23 //x2=26.02 //y2=7.4
r441 (  289 369 ) resistor r=33.1979 //w=0.187 //l=0.485 //layer=li \
 //thickness=0.1 //x=26.02 //y=7.23 //x2=26.02 //y2=6.745
r442 (  286 344 ) resistor r=2.94794 //w=0.34 //l=0.085 //layer=li \
 //thickness=0.1 //x=25.225 //y=7.4 //x2=25.14 //y2=7.4
r443 (  286 288 ) resistor r=24.2017 //w=0.357 //l=0.675 //layer=li \
 //thickness=0.1 //x=25.225 //y=7.4 //x2=25.9 //y2=7.4
r444 (  285 345 ) resistor r=2.94794 //w=0.34 //l=0.085 //layer=li \
 //thickness=0.1 //x=25.935 //y=7.4 //x2=26.02 //y2=7.4
r445 (  285 288 ) resistor r=1.2549 //w=0.357 //l=0.035 //layer=li \
 //thickness=0.1 //x=25.935 //y=7.4 //x2=25.9 //y2=7.4
r446 (  279 344 ) resistor r=4.11603 //w=0.68 //l=0.17 //layer=li \
 //thickness=0.1 //x=25.14 //y=7.23 //x2=25.14 //y2=7.4
r447 (  279 368 ) resistor r=56.4706 //w=0.187 //l=0.825 //layer=li \
 //thickness=0.1 //x=25.14 //y=7.23 //x2=25.14 //y2=6.405
r448 (  276 343 ) resistor r=5.4201 //w=0.34 //l=0.17 //layer=li \
 //thickness=0.1 //x=24.22 //y=7.4 //x2=24.05 //y2=7.4
r449 (  276 278 ) resistor r=20.437 //w=0.357 //l=0.57 //layer=li \
 //thickness=0.1 //x=24.22 //y=7.4 //x2=24.79 //y2=7.4
r450 (  275 344 ) resistor r=2.94794 //w=0.34 //l=0.085 //layer=li \
 //thickness=0.1 //x=25.055 //y=7.4 //x2=25.14 //y2=7.4
r451 (  275 278 ) resistor r=9.5014 //w=0.357 //l=0.265 //layer=li \
 //thickness=0.1 //x=25.055 //y=7.4 //x2=24.79 //y2=7.4
r452 (  270 342 ) resistor r=2.94794 //w=0.34 //l=0.085 //layer=li \
 //thickness=0.1 //x=23.055 //y=7.4 //x2=22.97 //y2=7.4
r453 (  270 272 ) resistor r=9.14286 //w=0.357 //l=0.255 //layer=li \
 //thickness=0.1 //x=23.055 //y=7.4 //x2=23.31 //y2=7.4
r454 (  269 343 ) resistor r=5.4201 //w=0.34 //l=0.17 //layer=li \
 //thickness=0.1 //x=23.88 //y=7.4 //x2=24.05 //y2=7.4
r455 (  269 272 ) resistor r=20.437 //w=0.357 //l=0.57 //layer=li \
 //thickness=0.1 //x=23.88 //y=7.4 //x2=23.31 //y2=7.4
r456 (  263 342 ) resistor r=4.11603 //w=0.68 //l=0.17 //layer=li \
 //thickness=0.1 //x=22.97 //y=7.23 //x2=22.97 //y2=7.4
r457 (  263 367 ) resistor r=33.1979 //w=0.187 //l=0.485 //layer=li \
 //thickness=0.1 //x=22.97 //y=7.23 //x2=22.97 //y2=6.745
r458 (  260 341 ) resistor r=2.94794 //w=0.34 //l=0.085 //layer=li \
 //thickness=0.1 //x=22.175 //y=7.4 //x2=22.09 //y2=7.4
r459 (  260 262 ) resistor r=0.896359 //w=0.357 //l=0.025 //layer=li \
 //thickness=0.1 //x=22.175 //y=7.4 //x2=22.2 //y2=7.4
r460 (  259 342 ) resistor r=2.94794 //w=0.34 //l=0.085 //layer=li \
 //thickness=0.1 //x=22.885 //y=7.4 //x2=22.97 //y2=7.4
r461 (  259 262 ) resistor r=24.5602 //w=0.357 //l=0.685 //layer=li \
 //thickness=0.1 //x=22.885 //y=7.4 //x2=22.2 //y2=7.4
r462 (  253 341 ) resistor r=4.11603 //w=0.68 //l=0.17 //layer=li \
 //thickness=0.1 //x=22.09 //y=7.23 //x2=22.09 //y2=7.4
r463 (  253 366 ) resistor r=33.1979 //w=0.187 //l=0.485 //layer=li \
 //thickness=0.1 //x=22.09 //y=7.23 //x2=22.09 //y2=6.745
r464 (  252 340 ) resistor r=2.94794 //w=0.34 //l=0.085 //layer=li \
 //thickness=0.1 //x=21.295 //y=7.4 //x2=21.21 //y2=7.4
r465 (  251 341 ) resistor r=2.94794 //w=0.34 //l=0.085 //layer=li \
 //thickness=0.1 //x=22.005 //y=7.4 //x2=22.09 //y2=7.4
r466 (  251 252 ) resistor r=25.4566 //w=0.357 //l=0.71 //layer=li \
 //thickness=0.1 //x=22.005 //y=7.4 //x2=21.295 //y2=7.4
r467 (  245 340 ) resistor r=4.11603 //w=0.68 //l=0.17 //layer=li \
 //thickness=0.1 //x=21.21 //y=7.23 //x2=21.21 //y2=7.4
r468 (  245 365 ) resistor r=33.1979 //w=0.187 //l=0.485 //layer=li \
 //thickness=0.1 //x=21.21 //y=7.23 //x2=21.21 //y2=6.745
r469 (  242 339 ) resistor r=2.94794 //w=0.34 //l=0.085 //layer=li \
 //thickness=0.1 //x=20.415 //y=7.4 //x2=20.33 //y2=7.4
r470 (  242 244 ) resistor r=24.2017 //w=0.357 //l=0.675 //layer=li \
 //thickness=0.1 //x=20.415 //y=7.4 //x2=21.09 //y2=7.4
r471 (  241 340 ) resistor r=2.94794 //w=0.34 //l=0.085 //layer=li \
 //thickness=0.1 //x=21.125 //y=7.4 //x2=21.21 //y2=7.4
r472 (  241 244 ) resistor r=1.2549 //w=0.357 //l=0.035 //layer=li \
 //thickness=0.1 //x=21.125 //y=7.4 //x2=21.09 //y2=7.4
r473 (  235 339 ) resistor r=4.11603 //w=0.68 //l=0.17 //layer=li \
 //thickness=0.1 //x=20.33 //y=7.23 //x2=20.33 //y2=7.4
r474 (  235 364 ) resistor r=56.4706 //w=0.187 //l=0.825 //layer=li \
 //thickness=0.1 //x=20.33 //y=7.23 //x2=20.33 //y2=6.405
r475 (  232 338 ) resistor r=5.4201 //w=0.34 //l=0.17 //layer=li \
 //thickness=0.1 //x=19.41 //y=7.4 //x2=19.24 //y2=7.4
r476 (  232 234 ) resistor r=20.437 //w=0.357 //l=0.57 //layer=li \
 //thickness=0.1 //x=19.41 //y=7.4 //x2=19.98 //y2=7.4
r477 (  231 339 ) resistor r=2.94794 //w=0.34 //l=0.085 //layer=li \
 //thickness=0.1 //x=20.245 //y=7.4 //x2=20.33 //y2=7.4
r478 (  231 234 ) resistor r=9.5014 //w=0.357 //l=0.265 //layer=li \
 //thickness=0.1 //x=20.245 //y=7.4 //x2=19.98 //y2=7.4
r479 (  226 337 ) resistor r=2.94794 //w=0.34 //l=0.085 //layer=li \
 //thickness=0.1 //x=18.245 //y=7.4 //x2=18.16 //y2=7.4
r480 (  226 228 ) resistor r=9.14286 //w=0.357 //l=0.255 //layer=li \
 //thickness=0.1 //x=18.245 //y=7.4 //x2=18.5 //y2=7.4
r481 (  225 338 ) resistor r=5.4201 //w=0.34 //l=0.17 //layer=li \
 //thickness=0.1 //x=19.07 //y=7.4 //x2=19.24 //y2=7.4
r482 (  225 228 ) resistor r=20.437 //w=0.357 //l=0.57 //layer=li \
 //thickness=0.1 //x=19.07 //y=7.4 //x2=18.5 //y2=7.4
r483 (  219 337 ) resistor r=4.11603 //w=0.68 //l=0.17 //layer=li \
 //thickness=0.1 //x=18.16 //y=7.23 //x2=18.16 //y2=7.4
r484 (  219 363 ) resistor r=33.1979 //w=0.187 //l=0.485 //layer=li \
 //thickness=0.1 //x=18.16 //y=7.23 //x2=18.16 //y2=6.745
r485 (  216 336 ) resistor r=2.94794 //w=0.34 //l=0.085 //layer=li \
 //thickness=0.1 //x=17.365 //y=7.4 //x2=17.28 //y2=7.4
r486 (  216 218 ) resistor r=0.896359 //w=0.357 //l=0.025 //layer=li \
 //thickness=0.1 //x=17.365 //y=7.4 //x2=17.39 //y2=7.4
r487 (  215 337 ) resistor r=2.94794 //w=0.34 //l=0.085 //layer=li \
 //thickness=0.1 //x=18.075 //y=7.4 //x2=18.16 //y2=7.4
r488 (  215 218 ) resistor r=24.5602 //w=0.357 //l=0.685 //layer=li \
 //thickness=0.1 //x=18.075 //y=7.4 //x2=17.39 //y2=7.4
r489 (  209 336 ) resistor r=4.11603 //w=0.68 //l=0.17 //layer=li \
 //thickness=0.1 //x=17.28 //y=7.23 //x2=17.28 //y2=7.4
r490 (  209 362 ) resistor r=33.1979 //w=0.187 //l=0.485 //layer=li \
 //thickness=0.1 //x=17.28 //y=7.23 //x2=17.28 //y2=6.745
r491 (  208 335 ) resistor r=2.94794 //w=0.34 //l=0.085 //layer=li \
 //thickness=0.1 //x=16.485 //y=7.4 //x2=16.4 //y2=7.4
r492 (  207 336 ) resistor r=2.94794 //w=0.34 //l=0.085 //layer=li \
 //thickness=0.1 //x=17.195 //y=7.4 //x2=17.28 //y2=7.4
r493 (  207 208 ) resistor r=25.4566 //w=0.357 //l=0.71 //layer=li \
 //thickness=0.1 //x=17.195 //y=7.4 //x2=16.485 //y2=7.4
r494 (  201 335 ) resistor r=4.11603 //w=0.68 //l=0.17 //layer=li \
 //thickness=0.1 //x=16.4 //y=7.23 //x2=16.4 //y2=7.4
r495 (  201 361 ) resistor r=33.1979 //w=0.187 //l=0.485 //layer=li \
 //thickness=0.1 //x=16.4 //y=7.23 //x2=16.4 //y2=6.745
r496 (  198 334 ) resistor r=2.94794 //w=0.34 //l=0.085 //layer=li \
 //thickness=0.1 //x=15.605 //y=7.4 //x2=15.52 //y2=7.4
r497 (  198 200 ) resistor r=24.2017 //w=0.357 //l=0.675 //layer=li \
 //thickness=0.1 //x=15.605 //y=7.4 //x2=16.28 //y2=7.4
r498 (  197 335 ) resistor r=2.94794 //w=0.34 //l=0.085 //layer=li \
 //thickness=0.1 //x=16.315 //y=7.4 //x2=16.4 //y2=7.4
r499 (  197 200 ) resistor r=1.2549 //w=0.357 //l=0.035 //layer=li \
 //thickness=0.1 //x=16.315 //y=7.4 //x2=16.28 //y2=7.4
r500 (  191 334 ) resistor r=4.11603 //w=0.68 //l=0.17 //layer=li \
 //thickness=0.1 //x=15.52 //y=7.23 //x2=15.52 //y2=7.4
r501 (  191 360 ) resistor r=56.4706 //w=0.187 //l=0.825 //layer=li \