// File: dffsnrnx1_pcell.spi.DFFSNRNX1_PCELL.pxi
// Created: Tue Oct 15 15:56:04 2024
// 
simulator lang=spectre
x_PM_DFFSNRNX1_PCELL\%noxref_1 ( N_noxref_1_c_71_p N_noxref_1_c_106_p \
 N_noxref_1_c_1_p N_noxref_1_c_72_p N_noxref_1_c_16_p N_noxref_1_c_23_p \
 N_noxref_1_c_26_p N_noxref_1_c_33_p N_noxref_1_c_42_p N_noxref_1_c_49_p \
 N_noxref_1_c_60_p N_noxref_1_c_67_p N_noxref_1_c_93_p N_noxref_1_c_2_p \
 N_noxref_1_c_3_p N_noxref_1_c_4_p N_noxref_1_c_5_p N_noxref_1_c_6_p \
 N_noxref_1_c_7_p N_noxref_1_M0_noxref_d N_noxref_1_M3_noxref_d \
 N_noxref_1_M6_noxref_d N_noxref_1_M9_noxref_d N_noxref_1_M12_noxref_d \
 N_noxref_1_M15_noxref_d )  PM_DFFSNRNX1_PCELL\%noxref_1
x_PM_DFFSNRNX1_PCELL\%noxref_2 ( N_noxref_2_c_320_p N_noxref_2_c_313_n \
 N_noxref_2_c_321_p N_noxref_2_c_322_p N_noxref_2_c_328_p N_noxref_2_c_332_p \
 N_noxref_2_c_341_p N_noxref_2_c_423_p N_noxref_2_c_444_p N_noxref_2_c_408_p \
 N_noxref_2_c_409_p N_noxref_2_c_345_p N_noxref_2_c_370_p N_noxref_2_c_376_p \
 N_noxref_2_c_380_p N_noxref_2_c_412_p N_noxref_2_c_386_p N_noxref_2_c_427_p \
 N_noxref_2_c_488_p N_noxref_2_c_531_p N_noxref_2_c_458_p N_noxref_2_c_492_p \
 N_noxref_2_c_572_p N_noxref_2_c_588_p N_noxref_2_c_609_p N_noxref_2_c_504_p \
 N_noxref_2_c_543_p N_noxref_2_c_314_n N_noxref_2_c_315_n N_noxref_2_c_316_n \
 N_noxref_2_c_317_n N_noxref_2_c_318_n N_noxref_2_c_319_n \
 N_noxref_2_M18_noxref_s N_noxref_2_M19_noxref_d N_noxref_2_M21_noxref_d \
 N_noxref_2_M23_noxref_d N_noxref_2_M24_noxref_s N_noxref_2_M25_noxref_d \
 N_noxref_2_M27_noxref_d N_noxref_2_M29_noxref_d N_noxref_2_M30_noxref_s \
 N_noxref_2_M31_noxref_d N_noxref_2_M33_noxref_d N_noxref_2_M35_noxref_d \
 N_noxref_2_M36_noxref_s N_noxref_2_M37_noxref_d N_noxref_2_M39_noxref_d \
 N_noxref_2_M41_noxref_d N_noxref_2_M42_noxref_s N_noxref_2_M43_noxref_d \
 N_noxref_2_M45_noxref_d N_noxref_2_M47_noxref_d N_noxref_2_M48_noxref_s \
 N_noxref_2_M49_noxref_d N_noxref_2_M51_noxref_d N_noxref_2_M53_noxref_d )  \
 PM_DFFSNRNX1_PCELL\%noxref_2
x_PM_DFFSNRNX1_PCELL\%noxref_3 ( N_noxref_3_c_644_n N_noxref_3_c_645_n \
 N_noxref_3_c_646_n N_noxref_3_c_647_n N_noxref_3_c_673_n N_noxref_3_c_677_n \
 N_noxref_3_c_679_n N_noxref_3_c_683_n N_noxref_3_c_648_n N_noxref_3_c_803_p \
 N_noxref_3_c_649_n N_noxref_3_c_650_n N_noxref_3_c_651_n N_noxref_3_c_807_p \
 N_noxref_3_c_764_p N_noxref_3_M3_noxref_g N_noxref_3_M6_noxref_g \
 N_noxref_3_M24_noxref_g N_noxref_3_M25_noxref_g N_noxref_3_M30_noxref_g \
 N_noxref_3_M31_noxref_g N_noxref_3_c_652_n N_noxref_3_c_654_n \
 N_noxref_3_c_655_n N_noxref_3_c_656_n N_noxref_3_c_657_n N_noxref_3_c_658_n \
 N_noxref_3_c_659_n N_noxref_3_c_661_n N_noxref_3_c_736_p N_noxref_3_c_702_n \
 N_noxref_3_c_662_n N_noxref_3_c_664_n N_noxref_3_c_665_n N_noxref_3_c_666_n \
 N_noxref_3_c_667_n N_noxref_3_c_668_n N_noxref_3_c_669_n N_noxref_3_c_671_n \
 N_noxref_3_c_724_p N_noxref_3_c_704_n N_noxref_3_M2_noxref_d \
 N_noxref_3_M18_noxref_d N_noxref_3_M20_noxref_d N_noxref_3_M22_noxref_d )  \
 PM_DFFSNRNX1_PCELL\%noxref_3
x_PM_DFFSNRNX1_PCELL\%noxref_4 ( N_noxref_4_c_881_n N_noxref_4_c_882_n \
 N_noxref_4_c_897_n N_noxref_4_c_901_n N_noxref_4_c_903_n N_noxref_4_c_907_n \
 N_noxref_4_c_883_n N_noxref_4_c_976_p N_noxref_4_c_884_n N_noxref_4_c_885_n \
 N_noxref_4_c_991_p N_noxref_4_c_999_p N_noxref_4_M9_noxref_g \
 N_noxref_4_M36_noxref_g N_noxref_4_M37_noxref_g N_noxref_4_c_886_n \
 N_noxref_4_c_888_n N_noxref_4_c_889_n N_noxref_4_c_890_n N_noxref_4_c_891_n \
 N_noxref_4_c_892_n N_noxref_4_c_893_n N_noxref_4_c_895_n N_noxref_4_c_951_p \
 N_noxref_4_c_919_n N_noxref_4_M8_noxref_d N_noxref_4_M30_noxref_d \
 N_noxref_4_M32_noxref_d N_noxref_4_M34_noxref_d )  PM_DFFSNRNX1_PCELL\%noxref_4
x_PM_DFFSNRNX1_PCELL\%noxref_5 ( N_noxref_5_c_1045_n N_noxref_5_c_1056_n \
 N_noxref_5_c_1043_n N_noxref_5_c_1044_n N_noxref_5_M4_noxref_g \
 N_noxref_5_M10_noxref_g N_noxref_5_M26_noxref_g N_noxref_5_M27_noxref_g \
 N_noxref_5_M38_noxref_g N_noxref_5_M39_noxref_g N_noxref_5_c_1084_n \
 N_noxref_5_c_1087_n N_noxref_5_c_1215_p N_noxref_5_c_1222_p \
 N_noxref_5_c_1089_n N_noxref_5_c_1090_n N_noxref_5_c_1091_n \
 N_noxref_5_c_1092_n N_noxref_5_c_1140_p N_noxref_5_c_1112_n \
 N_noxref_5_c_1115_n N_noxref_5_c_1235_p N_noxref_5_c_1242_p \
 N_noxref_5_c_1117_n N_noxref_5_c_1118_n N_noxref_5_c_1119_n \
 N_noxref_5_c_1120_n N_noxref_5_c_1163_p N_noxref_5_c_1094_n \
 N_noxref_5_c_1122_n )  PM_DFFSNRNX1_PCELL\%noxref_5
x_PM_DFFSNRNX1_PCELL\%noxref_6 ( N_noxref_6_c_1247_n N_noxref_6_c_1266_n \
 N_noxref_6_c_1248_n N_noxref_6_c_1324_n N_noxref_6_c_1249_n \
 N_noxref_6_c_1268_n N_noxref_6_c_1272_n N_noxref_6_c_1274_n \
 N_noxref_6_c_1278_n N_noxref_6_c_1250_n N_noxref_6_c_1384_p \
 N_noxref_6_c_1282_n N_noxref_6_c_1251_n N_noxref_6_c_1375_n \
 N_noxref_6_c_1454_p N_noxref_6_M2_noxref_g N_noxref_6_M12_noxref_g \
 N_noxref_6_M22_noxref_g N_noxref_6_M23_noxref_g N_noxref_6_M42_noxref_g \
 N_noxref_6_M43_noxref_g N_noxref_6_c_1340_n N_noxref_6_c_1341_n \
 N_noxref_6_c_1342_n N_noxref_6_c_1343_n N_noxref_6_c_1344_n \
 N_noxref_6_c_1346_n N_noxref_6_c_1347_n N_noxref_6_c_1252_n \
 N_noxref_6_c_1254_n N_noxref_6_c_1255_n N_noxref_6_c_1256_n \
 N_noxref_6_c_1257_n N_noxref_6_c_1258_n N_noxref_6_c_1259_n \
 N_noxref_6_c_1261_n N_noxref_6_c_1403_p N_noxref_6_c_1294_n \
 N_noxref_6_c_1349_n N_noxref_6_c_1350_n N_noxref_6_c_1352_n \
 N_noxref_6_M5_noxref_d N_noxref_6_M24_noxref_d N_noxref_6_M26_noxref_d \
 N_noxref_6_M28_noxref_d )  PM_DFFSNRNX1_PCELL\%noxref_6
x_PM_DFFSNRNX1_PCELL\%noxref_7 ( N_noxref_7_c_1511_n N_noxref_7_c_1522_n \
 N_noxref_7_c_1523_n N_noxref_7_c_1527_n N_noxref_7_c_1528_n \
 N_noxref_7_c_1529_n N_noxref_7_c_1530_n N_noxref_7_M1_noxref_g \
 N_noxref_7_M11_noxref_g N_noxref_7_M13_noxref_g N_noxref_7_M20_noxref_g \
 N_noxref_7_M21_noxref_g N_noxref_7_M40_noxref_g N_noxref_7_M41_noxref_g \
 N_noxref_7_M44_noxref_g N_noxref_7_M45_noxref_g N_noxref_7_c_1706_p \
 N_noxref_7_c_1708_p N_noxref_7_c_1733_p N_noxref_7_c_1741_p \
 N_noxref_7_c_1629_n N_noxref_7_c_1630_n N_noxref_7_c_1631_n \
 N_noxref_7_c_1632_n N_noxref_7_c_1566_n N_noxref_7_c_1588_n \
 N_noxref_7_c_1589_n N_noxref_7_c_1590_n N_noxref_7_c_1692_p \
 N_noxref_7_c_1673_p N_noxref_7_c_1694_p N_noxref_7_c_1674_p \
 N_noxref_7_c_1636_n N_noxref_7_c_1639_n N_noxref_7_c_1815_p \
 N_noxref_7_c_1822_p N_noxref_7_c_1641_n N_noxref_7_c_1642_n \
 N_noxref_7_c_1643_n N_noxref_7_c_1644_n N_noxref_7_c_1665_p \
 N_noxref_7_c_1567_n N_noxref_7_c_1591_n N_noxref_7_c_1593_n \
 N_noxref_7_c_1594_n N_noxref_7_c_1648_n )  PM_DFFSNRNX1_PCELL\%noxref_7
x_PM_DFFSNRNX1_PCELL\%noxref_8 ( N_noxref_8_c_1827_n N_noxref_8_c_1847_n \
 N_noxref_8_c_1833_n N_noxref_8_c_1834_n N_noxref_8_M7_noxref_g \
 N_noxref_8_M16_noxref_g N_noxref_8_M32_noxref_g N_noxref_8_M33_noxref_g \
 N_noxref_8_M50_noxref_g N_noxref_8_M51_noxref_g N_noxref_8_c_1856_n \
 N_noxref_8_c_1859_n N_noxref_8_c_1952_p N_noxref_8_c_1959_p \
 N_noxref_8_c_1861_n N_noxref_8_c_1862_n N_noxref_8_c_1863_n \
 N_noxref_8_c_1864_n N_noxref_8_c_1879_n N_noxref_8_c_1981_p \
 N_noxref_8_c_1983_p N_noxref_8_c_2016_p N_noxref_8_c_2023_p \
 N_noxref_8_c_1929_p N_noxref_8_c_1930_p N_noxref_8_c_1931_p \
 N_noxref_8_c_1918_p N_noxref_8_c_1907_p N_noxref_8_c_1866_n \
 N_noxref_8_c_1908_p )  PM_DFFSNRNX1_PCELL\%noxref_8
x_PM_DFFSNRNX1_PCELL\%noxref_9 ( N_noxref_9_c_2034_n N_noxref_9_c_2090_n \
 N_noxref_9_c_2035_n N_noxref_9_c_2097_n N_noxref_9_c_2028_n \
 N_noxref_9_c_2042_n N_noxref_9_c_2029_n N_noxref_9_c_2030_n \
 N_noxref_9_c_2045_n N_noxref_9_c_2049_n N_noxref_9_c_2051_n \
 N_noxref_9_c_2055_n N_noxref_9_c_2031_n N_noxref_9_c_2218_n \
 N_noxref_9_c_2059_n N_noxref_9_c_2032_n N_noxref_9_c_2146_n \
 N_noxref_9_c_2226_n N_noxref_9_M5_noxref_g N_noxref_9_M8_noxref_g \
 N_noxref_9_M17_noxref_g N_noxref_9_M28_noxref_g N_noxref_9_M29_noxref_g \
 N_noxref_9_M34_noxref_g N_noxref_9_M35_noxref_g N_noxref_9_M52_noxref_g \
 N_noxref_9_M53_noxref_g N_noxref_9_c_2151_n N_noxref_9_c_2152_n \
 N_noxref_9_c_2153_n N_noxref_9_c_2191_n N_noxref_9_c_2192_n \
 N_noxref_9_c_2194_n N_noxref_9_c_2195_n N_noxref_9_c_2110_n \
 N_noxref_9_c_2111_n N_noxref_9_c_2112_n N_noxref_9_c_2113_n \
 N_noxref_9_c_2114_n N_noxref_9_c_2116_n N_noxref_9_c_2117_n \
 N_noxref_9_c_2272_n N_noxref_9_c_2273_n N_noxref_9_c_2274_n \
 N_noxref_9_c_2345_p N_noxref_9_c_2332_p N_noxref_9_c_2347_p \
 N_noxref_9_c_2333_p N_noxref_9_c_2154_n N_noxref_9_c_2156_n \
 N_noxref_9_c_2157_n N_noxref_9_c_2119_n N_noxref_9_c_2120_n \
 N_noxref_9_c_2122_n N_noxref_9_c_2281_n N_noxref_9_c_2283_n \
 N_noxref_9_c_2284_n N_noxref_9_M11_noxref_d N_noxref_9_M36_noxref_d \
 N_noxref_9_M38_noxref_d N_noxref_9_M40_noxref_d )  PM_DFFSNRNX1_PCELL\%noxref_9
x_PM_DFFSNRNX1_PCELL\%noxref_10 ( N_noxref_10_c_2364_n N_noxref_10_M0_noxref_g \
 N_noxref_10_M18_noxref_g N_noxref_10_M19_noxref_g N_noxref_10_c_2365_n \
 N_noxref_10_c_2367_n N_noxref_10_c_2368_n N_noxref_10_c_2369_n \
 N_noxref_10_c_2370_n N_noxref_10_c_2371_n N_noxref_10_c_2372_n \
 N_noxref_10_c_2374_n N_noxref_10_c_2387_n N_noxref_10_c_2382_n )  \
 PM_DFFSNRNX1_PCELL\%noxref_10
x_PM_DFFSNRNX1_PCELL\%noxref_11 ( N_noxref_11_c_2449_n N_noxref_11_c_2421_n \
 N_noxref_11_c_2425_n N_noxref_11_c_2428_n N_noxref_11_c_2440_n \
 N_noxref_11_M0_noxref_s )  PM_DFFSNRNX1_PCELL\%noxref_11
x_PM_DFFSNRNX1_PCELL\%noxref_12 ( N_noxref_12_c_2467_n N_noxref_12_c_2470_n \
 N_noxref_12_c_2473_n N_noxref_12_c_2476_n N_noxref_12_c_2484_n \
 N_noxref_12_M1_noxref_d N_noxref_12_M2_noxref_s )  \
 PM_DFFSNRNX1_PCELL\%noxref_12
x_PM_DFFSNRNX1_PCELL\%noxref_13 ( N_noxref_13_c_2537_n N_noxref_13_c_2521_n \
 N_noxref_13_c_2525_n N_noxref_13_c_2528_n N_noxref_13_c_2551_n \
 N_noxref_13_M3_noxref_s )  PM_DFFSNRNX1_PCELL\%noxref_13
x_PM_DFFSNRNX1_PCELL\%noxref_14 ( N_noxref_14_c_2571_n N_noxref_14_c_2574_n \
 N_noxref_14_c_2577_n N_noxref_14_c_2580_n N_noxref_14_c_2600_n \
 N_noxref_14_M4_noxref_d N_noxref_14_M5_noxref_s )  \
 PM_DFFSNRNX1_PCELL\%noxref_14
x_PM_DFFSNRNX1_PCELL\%noxref_15 ( N_noxref_15_c_2641_n N_noxref_15_c_2625_n \
 N_noxref_15_c_2629_n N_noxref_15_c_2632_n N_noxref_15_c_2656_n \
 N_noxref_15_M6_noxref_s )  PM_DFFSNRNX1_PCELL\%noxref_15
x_PM_DFFSNRNX1_PCELL\%noxref_16 ( N_noxref_16_c_2675_n N_noxref_16_c_2678_n \
 N_noxref_16_c_2681_n N_noxref_16_c_2684_n N_noxref_16_c_2692_n \
 N_noxref_16_M7_noxref_d N_noxref_16_M8_noxref_s )  \
 PM_DFFSNRNX1_PCELL\%noxref_16
x_PM_DFFSNRNX1_PCELL\%noxref_17 ( N_noxref_17_c_2745_n N_noxref_17_c_2729_n \
 N_noxref_17_c_2733_n N_noxref_17_c_2736_n N_noxref_17_c_2759_n \
 N_noxref_17_M9_noxref_s )  PM_DFFSNRNX1_PCELL\%noxref_17
x_PM_DFFSNRNX1_PCELL\%noxref_18 ( N_noxref_18_c_2779_n N_noxref_18_c_2782_n \
 N_noxref_18_c_2785_n N_noxref_18_c_2788_n N_noxref_18_c_2813_n \
 N_noxref_18_M10_noxref_d N_noxref_18_M11_noxref_s )  \
 PM_DFFSNRNX1_PCELL\%noxref_18
x_PM_DFFSNRNX1_PCELL\%noxref_19 ( N_noxref_19_c_2850_n N_noxref_19_c_2834_n \
 N_noxref_19_c_2838_n N_noxref_19_c_2841_n N_noxref_19_c_2864_n \
 N_noxref_19_M12_noxref_s )  PM_DFFSNRNX1_PCELL\%noxref_19
x_PM_DFFSNRNX1_PCELL\%noxref_20 ( N_noxref_20_c_2886_n \
 N_noxref_20_M14_noxref_g N_noxref_20_M46_noxref_g N_noxref_20_M47_noxref_g \
 N_noxref_20_c_2900_n N_noxref_20_c_2901_n N_noxref_20_c_2902_n \
 N_noxref_20_c_2928_p N_noxref_20_c_2917_p N_noxref_20_c_2930_p \
 N_noxref_20_c_2918_p N_noxref_20_c_2903_n N_noxref_20_c_2906_n \
 N_noxref_20_c_2907_n )  PM_DFFSNRNX1_PCELL\%noxref_20
x_PM_DFFSNRNX1_PCELL\%noxref_21 ( N_noxref_21_c_2947_n N_noxref_21_c_2951_n \
 N_noxref_21_c_2953_n N_noxref_21_c_2957_n N_noxref_21_c_2945_n \
 N_noxref_21_c_2989_n N_noxref_21_c_2961_n N_noxref_21_c_2986_n \
 N_noxref_21_c_3007_n N_noxref_21_M14_noxref_d N_noxref_21_M42_noxref_d \
 N_noxref_21_M44_noxref_d N_noxref_21_M46_noxref_d )  \
 PM_DFFSNRNX1_PCELL\%noxref_21
x_PM_DFFSNRNX1_PCELL\%noxref_22 ( N_noxref_22_c_3029_n N_noxref_22_c_3032_n \
 N_noxref_22_c_3035_n N_noxref_22_c_3038_n N_noxref_22_c_3071_n \
 N_noxref_22_M13_noxref_d N_noxref_22_M14_noxref_s )  \
 PM_DFFSNRNX1_PCELL\%noxref_22
x_PM_DFFSNRNX1_PCELL\%noxref_23 ( N_noxref_23_c_3083_n \
 N_noxref_23_M15_noxref_g N_noxref_23_M48_noxref_g N_noxref_23_M49_noxref_g \
 N_noxref_23_c_3084_n N_noxref_23_c_3086_n N_noxref_23_c_3087_n \
 N_noxref_23_c_3088_n N_noxref_23_c_3089_n N_noxref_23_c_3090_n \
 N_noxref_23_c_3091_n N_noxref_23_c_3093_n N_noxref_23_c_3121_n \
 N_noxref_23_c_3101_n )  PM_DFFSNRNX1_PCELL\%noxref_23
x_PM_DFFSNRNX1_PCELL\%noxref_24 ( N_noxref_24_c_3158_n N_noxref_24_c_3144_n \
 N_noxref_24_c_3148_n N_noxref_24_c_3151_n N_noxref_24_c_3162_n \
 N_noxref_24_M15_noxref_s )  PM_DFFSNRNX1_PCELL\%noxref_24
x_PM_DFFSNRNX1_PCELL\%noxref_25 ( N_noxref_25_c_3196_n N_noxref_25_c_3200_n \
 N_noxref_25_c_3202_n N_noxref_25_c_3206_n N_noxref_25_c_3194_n \
 N_noxref_25_c_3267_p N_noxref_25_c_3210_n N_noxref_25_c_3230_n \
 N_noxref_25_c_3246_n N_noxref_25_M17_noxref_d N_noxref_25_M48_noxref_d \
 N_noxref_25_M50_noxref_d N_noxref_25_M52_noxref_d )  \
 PM_DFFSNRNX1_PCELL\%noxref_25
x_PM_DFFSNRNX1_PCELL\%noxref_26 ( N_noxref_26_c_3271_n N_noxref_26_c_3273_n \
 N_noxref_26_c_3276_n N_noxref_26_c_3278_n N_noxref_26_c_3301_n \
 N_noxref_26_M16_noxref_d N_noxref_26_M17_noxref_s )  \
 PM_DFFSNRNX1_PCELL\%noxref_26
cc_1 ( N_noxref_1_c_1_p N_noxref_2_c_313_n ) capacitor c=0.00989031f //x=0.74 \
 //y=0 //x2=0.74 //y2=7.4
cc_2 ( N_noxref_1_c_2_p N_noxref_2_c_314_n ) capacitor c=0.00989031f //x=28.12 \
 //y=0 //x2=28.12 //y2=7.4
cc_3 ( N_noxref_1_c_3_p N_noxref_2_c_315_n ) capacitor c=0.00927471f //x=4.81 \
 //y=0 //x2=4.81 //y2=7.4
cc_4 ( N_noxref_1_c_4_p N_noxref_2_c_316_n ) capacitor c=0.00989031f //x=9.62 \
 //y=0 //x2=9.62 //y2=7.4
cc_5 ( N_noxref_1_c_5_p N_noxref_2_c_317_n ) capacitor c=0.00989031f //x=14.43 \
 //y=0 //x2=14.43 //y2=7.4
cc_6 ( N_noxref_1_c_6_p N_noxref_2_c_318_n ) capacitor c=0.00802221f //x=19.24 \
 //y=0 //x2=19.24 //y2=7.4
cc_7 ( N_noxref_1_c_7_p N_noxref_2_c_319_n ) capacitor c=0.00802221f //x=24.05 \
 //y=0 //x2=24.05 //y2=7.4
cc_8 ( N_noxref_1_c_3_p N_noxref_3_c_644_n ) capacitor c=0.0238274f //x=4.81 \
 //y=0 //x2=5.805 //y2=2.59
cc_9 ( N_noxref_1_c_3_p N_noxref_3_c_645_n ) capacitor c=0.00102529f //x=4.81 \
 //y=0 //x2=4.185 //y2=2.59
cc_10 ( N_noxref_1_c_4_p N_noxref_3_c_646_n ) capacitor c=0.0253329f //x=9.62 \
 //y=0 //x2=10.615 //y2=2.59
cc_11 ( N_noxref_1_c_3_p N_noxref_3_c_647_n ) capacitor c=7.16565e-19 //x=4.81 \
 //y=0 //x2=6.035 //y2=2.59
cc_12 ( N_noxref_1_c_3_p N_noxref_3_c_648_n ) capacitor c=0.04008f //x=4.81 \
 //y=0 //x2=3.985 //y2=1.665
cc_13 ( N_noxref_1_c_3_p N_noxref_3_c_649_n ) capacitor c=5.56859e-19 //x=4.81 \
 //y=0 //x2=4.07 //y2=2.59
cc_14 ( N_noxref_1_c_3_p N_noxref_3_c_650_n ) capacitor c=0.0128021f //x=4.81 \
 //y=0 //x2=5.92 //y2=2.08
cc_15 ( N_noxref_1_c_4_p N_noxref_3_c_651_n ) capacitor c=0.0126655f //x=9.62 \
 //y=0 //x2=10.73 //y2=2.08
cc_16 ( N_noxref_1_c_16_p N_noxref_3_c_652_n ) capacitor c=0.00132755f //x=5.8 \
 //y=0 //x2=5.62 //y2=0.875
cc_17 ( N_noxref_1_M3_noxref_d N_noxref_3_c_652_n ) capacitor c=0.00211996f \
 //x=5.695 //y=0.875 //x2=5.62 //y2=0.875
cc_18 ( N_noxref_1_M3_noxref_d N_noxref_3_c_654_n ) capacitor c=0.00255985f \
 //x=5.695 //y=0.875 //x2=5.62 //y2=1.22
cc_19 ( N_noxref_1_c_3_p N_noxref_3_c_655_n ) capacitor c=0.00204716f //x=4.81 \
 //y=0 //x2=5.62 //y2=1.53
cc_20 ( N_noxref_1_c_3_p N_noxref_3_c_656_n ) capacitor c=0.0110952f //x=4.81 \
 //y=0 //x2=5.62 //y2=1.915
cc_21 ( N_noxref_1_M3_noxref_d N_noxref_3_c_657_n ) capacitor c=0.0131341f \
 //x=5.695 //y=0.875 //x2=5.995 //y2=0.72
cc_22 ( N_noxref_1_M3_noxref_d N_noxref_3_c_658_n ) capacitor c=0.00193146f \
 //x=5.695 //y=0.875 //x2=5.995 //y2=1.375
cc_23 ( N_noxref_1_c_23_p N_noxref_3_c_659_n ) capacitor c=0.00129018f \
 //x=9.45 //y=0 //x2=6.15 //y2=0.875
cc_24 ( N_noxref_1_M3_noxref_d N_noxref_3_c_659_n ) capacitor c=0.00257848f \
 //x=5.695 //y=0.875 //x2=6.15 //y2=0.875
cc_25 ( N_noxref_1_M3_noxref_d N_noxref_3_c_661_n ) capacitor c=0.00255985f \
 //x=5.695 //y=0.875 //x2=6.15 //y2=1.22
cc_26 ( N_noxref_1_c_26_p N_noxref_3_c_662_n ) capacitor c=0.00132755f \
 //x=10.61 //y=0 //x2=10.43 //y2=0.875
cc_27 ( N_noxref_1_M6_noxref_d N_noxref_3_c_662_n ) capacitor c=0.00211996f \
 //x=10.505 //y=0.875 //x2=10.43 //y2=0.875
cc_28 ( N_noxref_1_M6_noxref_d N_noxref_3_c_664_n ) capacitor c=0.00255985f \
 //x=10.505 //y=0.875 //x2=10.43 //y2=1.22
cc_29 ( N_noxref_1_c_4_p N_noxref_3_c_665_n ) capacitor c=0.00204716f //x=9.62 \
 //y=0 //x2=10.43 //y2=1.53
cc_30 ( N_noxref_1_c_4_p N_noxref_3_c_666_n ) capacitor c=0.0112696f //x=9.62 \
 //y=0 //x2=10.43 //y2=1.915
cc_31 ( N_noxref_1_M6_noxref_d N_noxref_3_c_667_n ) capacitor c=0.0131341f \
 //x=10.505 //y=0.875 //x2=10.805 //y2=0.72
cc_32 ( N_noxref_1_M6_noxref_d N_noxref_3_c_668_n ) capacitor c=0.00193146f \
 //x=10.505 //y=0.875 //x2=10.805 //y2=1.375
cc_33 ( N_noxref_1_c_33_p N_noxref_3_c_669_n ) capacitor c=0.00129018f \
 //x=14.26 //y=0 //x2=10.96 //y2=0.875
cc_34 ( N_noxref_1_M6_noxref_d N_noxref_3_c_669_n ) capacitor c=0.00257848f \
 //x=10.505 //y=0.875 //x2=10.96 //y2=0.875
cc_35 ( N_noxref_1_M6_noxref_d N_noxref_3_c_671_n ) capacitor c=0.00255985f \
 //x=10.505 //y=0.875 //x2=10.96 //y2=1.22
cc_36 ( N_noxref_1_c_3_p N_noxref_3_M2_noxref_d ) capacitor c=0.00591582f \
 //x=4.81 //y=0 //x2=3.395 //y2=0.915
cc_37 ( N_noxref_1_c_5_p N_noxref_4_c_881_n ) capacitor c=0.0222748f //x=14.43 \
 //y=0 //x2=15.425 //y2=2.59
cc_38 ( N_noxref_1_c_5_p N_noxref_4_c_882_n ) capacitor c=0.00102529f \
 //x=14.43 //y=0 //x2=13.805 //y2=2.59
cc_39 ( N_noxref_1_c_5_p N_noxref_4_c_883_n ) capacitor c=0.0401826f //x=14.43 \
 //y=0 //x2=13.605 //y2=1.665
cc_40 ( N_noxref_1_c_5_p N_noxref_4_c_884_n ) capacitor c=5.56859e-19 \
 //x=14.43 //y=0 //x2=13.69 //y2=2.59
cc_41 ( N_noxref_1_c_5_p N_noxref_4_c_885_n ) capacitor c=0.0127664f //x=14.43 \
 //y=0 //x2=15.54 //y2=2.08
cc_42 ( N_noxref_1_c_42_p N_noxref_4_c_886_n ) capacitor c=0.00132755f \
 //x=15.42 //y=0 //x2=15.24 //y2=0.875
cc_43 ( N_noxref_1_M9_noxref_d N_noxref_4_c_886_n ) capacitor c=0.00211996f \
 //x=15.315 //y=0.875 //x2=15.24 //y2=0.875
cc_44 ( N_noxref_1_M9_noxref_d N_noxref_4_c_888_n ) capacitor c=0.00255985f \
 //x=15.315 //y=0.875 //x2=15.24 //y2=1.22
cc_45 ( N_noxref_1_c_5_p N_noxref_4_c_889_n ) capacitor c=0.00204716f \
 //x=14.43 //y=0 //x2=15.24 //y2=1.53
cc_46 ( N_noxref_1_c_5_p N_noxref_4_c_890_n ) capacitor c=0.0110952f //x=14.43 \
 //y=0 //x2=15.24 //y2=1.915
cc_47 ( N_noxref_1_M9_noxref_d N_noxref_4_c_891_n ) capacitor c=0.0131341f \
 //x=15.315 //y=0.875 //x2=15.615 //y2=0.72
cc_48 ( N_noxref_1_M9_noxref_d N_noxref_4_c_892_n ) capacitor c=0.00193146f \
 //x=15.315 //y=0.875 //x2=15.615 //y2=1.375
cc_49 ( N_noxref_1_c_49_p N_noxref_4_c_893_n ) capacitor c=0.00129018f \
 //x=19.07 //y=0 //x2=15.77 //y2=0.875
cc_50 ( N_noxref_1_M9_noxref_d N_noxref_4_c_893_n ) capacitor c=0.00257848f \
 //x=15.315 //y=0.875 //x2=15.77 //y2=0.875
cc_51 ( N_noxref_1_M9_noxref_d N_noxref_4_c_895_n ) capacitor c=0.00255985f \
 //x=15.315 //y=0.875 //x2=15.77 //y2=1.22
cc_52 ( N_noxref_1_c_5_p N_noxref_4_M8_noxref_d ) capacitor c=0.00591582f \
 //x=14.43 //y=0 //x2=13.015 //y2=0.915
cc_53 ( N_noxref_1_c_3_p N_noxref_5_c_1043_n ) capacitor c=5.58077e-19 \
 //x=4.81 //y=0 //x2=7.03 //y2=2.08
cc_54 ( N_noxref_1_c_5_p N_noxref_5_c_1044_n ) capacitor c=7.67786e-19 \
 //x=14.43 //y=0 //x2=16.65 //y2=2.08
cc_55 ( N_noxref_1_c_3_p N_noxref_6_c_1247_n ) capacitor c=0.00505527f \
 //x=4.81 //y=0 //x2=8.765 //y2=3.33
cc_56 ( N_noxref_1_c_4_p N_noxref_6_c_1248_n ) capacitor c=0.00505527f \
 //x=9.62 //y=0 //x2=20.235 //y2=3.33
cc_57 ( N_noxref_1_c_3_p N_noxref_6_c_1249_n ) capacitor c=0.00101012f \
 //x=4.81 //y=0 //x2=3.33 //y2=2.08
cc_58 ( N_noxref_1_c_4_p N_noxref_6_c_1250_n ) capacitor c=0.0405987f //x=9.62 \
 //y=0 //x2=8.795 //y2=1.665
cc_59 ( N_noxref_1_c_6_p N_noxref_6_c_1251_n ) capacitor c=0.0155796f \
 //x=19.24 //y=0 //x2=20.35 //y2=2.08
cc_60 ( N_noxref_1_c_60_p N_noxref_6_c_1252_n ) capacitor c=0.00132755f \
 //x=20.23 //y=0 //x2=20.05 //y2=0.875
cc_61 ( N_noxref_1_M12_noxref_d N_noxref_6_c_1252_n ) capacitor c=0.00211996f \
 //x=20.125 //y=0.875 //x2=20.05 //y2=0.875
cc_62 ( N_noxref_1_M12_noxref_d N_noxref_6_c_1254_n ) capacitor c=0.00255985f \
 //x=20.125 //y=0.875 //x2=20.05 //y2=1.22
cc_63 ( N_noxref_1_c_6_p N_noxref_6_c_1255_n ) capacitor c=0.00204716f \
 //x=19.24 //y=0 //x2=20.05 //y2=1.53
cc_64 ( N_noxref_1_c_6_p N_noxref_6_c_1256_n ) capacitor c=0.0110952f \
 //x=19.24 //y=0 //x2=20.05 //y2=1.915
cc_65 ( N_noxref_1_M12_noxref_d N_noxref_6_c_1257_n ) capacitor c=0.0131341f \
 //x=20.125 //y=0.875 //x2=20.425 //y2=0.72
cc_66 ( N_noxref_1_M12_noxref_d N_noxref_6_c_1258_n ) capacitor c=0.00193146f \
 //x=20.125 //y=0.875 //x2=20.425 //y2=1.375
cc_67 ( N_noxref_1_c_67_p N_noxref_6_c_1259_n ) capacitor c=0.00129018f \
 //x=23.88 //y=0 //x2=20.58 //y2=0.875
cc_68 ( N_noxref_1_M12_noxref_d N_noxref_6_c_1259_n ) capacitor c=0.00257848f \
 //x=20.125 //y=0.875 //x2=20.58 //y2=0.875
cc_69 ( N_noxref_1_M12_noxref_d N_noxref_6_c_1261_n ) capacitor c=0.00255985f \
 //x=20.125 //y=0.875 //x2=20.58 //y2=1.22
cc_70 ( N_noxref_1_c_4_p N_noxref_6_M5_noxref_d ) capacitor c=0.00591582f \
 //x=9.62 //y=0 //x2=8.205 //y2=0.915
cc_71 ( N_noxref_1_c_71_p N_noxref_7_c_1511_n ) capacitor c=0.145588f \
 //x=28.12 //y=0 //x2=17.645 //y2=2.22
cc_72 ( N_noxref_1_c_72_p N_noxref_7_c_1511_n ) capacitor c=0.00447829f \
 //x=4.64 //y=0 //x2=17.645 //y2=2.22
cc_73 ( N_noxref_1_c_16_p N_noxref_7_c_1511_n ) capacitor c=0.00274252f \
 //x=5.8 //y=0 //x2=17.645 //y2=2.22
cc_74 ( N_noxref_1_c_23_p N_noxref_7_c_1511_n ) capacitor c=0.00450506f \
 //x=9.45 //y=0 //x2=17.645 //y2=2.22
cc_75 ( N_noxref_1_c_26_p N_noxref_7_c_1511_n ) capacitor c=0.00274252f \
 //x=10.61 //y=0 //x2=17.645 //y2=2.22
cc_76 ( N_noxref_1_c_33_p N_noxref_7_c_1511_n ) capacitor c=0.00450506f \
 //x=14.26 //y=0 //x2=17.645 //y2=2.22
cc_77 ( N_noxref_1_c_42_p N_noxref_7_c_1511_n ) capacitor c=0.00274252f \
 //x=15.42 //y=0 //x2=17.645 //y2=2.22
cc_78 ( N_noxref_1_c_49_p N_noxref_7_c_1511_n ) capacitor c=0.00111309f \
 //x=19.07 //y=0 //x2=17.645 //y2=2.22
cc_79 ( N_noxref_1_c_3_p N_noxref_7_c_1511_n ) capacitor c=0.0379964f //x=4.81 \
 //y=0 //x2=17.645 //y2=2.22
cc_80 ( N_noxref_1_c_4_p N_noxref_7_c_1511_n ) capacitor c=0.0379964f //x=9.62 \
 //y=0 //x2=17.645 //y2=2.22
cc_81 ( N_noxref_1_c_5_p N_noxref_7_c_1511_n ) capacitor c=0.0379964f \
 //x=14.43 //y=0 //x2=17.645 //y2=2.22
cc_82 ( N_noxref_1_c_71_p N_noxref_7_c_1522_n ) capacitor c=0.0019104f \
 //x=28.12 //y=0 //x2=2.335 //y2=2.22
cc_83 ( N_noxref_1_c_71_p N_noxref_7_c_1523_n ) capacitor c=0.0355717f \
 //x=28.12 //y=0 //x2=21.345 //y2=2.22
cc_84 ( N_noxref_1_c_49_p N_noxref_7_c_1523_n ) capacitor c=0.00318526f \
 //x=19.07 //y=0 //x2=21.345 //y2=2.22
cc_85 ( N_noxref_1_c_60_p N_noxref_7_c_1523_n ) capacitor c=0.00274252f \
 //x=20.23 //y=0 //x2=21.345 //y2=2.22
cc_86 ( N_noxref_1_c_6_p N_noxref_7_c_1523_n ) capacitor c=0.0401775f \
 //x=19.24 //y=0 //x2=21.345 //y2=2.22
cc_87 ( N_noxref_1_c_71_p N_noxref_7_c_1527_n ) capacitor c=0.00195247f \
 //x=28.12 //y=0 //x2=17.875 //y2=2.22
cc_88 ( N_noxref_1_c_1_p N_noxref_7_c_1528_n ) capacitor c=8.20622e-19 \
 //x=0.74 //y=0 //x2=2.22 //y2=2.08
cc_89 ( N_noxref_1_c_6_p N_noxref_7_c_1529_n ) capacitor c=8.37259e-19 \
 //x=19.24 //y=0 //x2=17.76 //y2=2.08
cc_90 ( N_noxref_1_c_6_p N_noxref_7_c_1530_n ) capacitor c=5.94159e-19 \
 //x=19.24 //y=0 //x2=21.46 //y2=2.08
cc_91 ( N_noxref_1_c_71_p N_noxref_8_c_1827_n ) capacitor c=0.0528755f \
 //x=28.12 //y=0 //x2=26.155 //y2=2.96
cc_92 ( N_noxref_1_c_67_p N_noxref_8_c_1827_n ) capacitor c=0.00282695f \
 //x=23.88 //y=0 //x2=26.155 //y2=2.96
cc_93 ( N_noxref_1_c_93_p N_noxref_8_c_1827_n ) capacitor c=0.00184476f \
 //x=25.04 //y=0 //x2=26.155 //y2=2.96
cc_94 ( N_noxref_1_c_5_p N_noxref_8_c_1827_n ) capacitor c=0.00750857f \
 //x=14.43 //y=0 //x2=26.155 //y2=2.96
cc_95 ( N_noxref_1_c_6_p N_noxref_8_c_1827_n ) capacitor c=0.00949826f \
 //x=19.24 //y=0 //x2=26.155 //y2=2.96
cc_96 ( N_noxref_1_c_7_p N_noxref_8_c_1827_n ) capacitor c=0.0144849f \
 //x=24.05 //y=0 //x2=26.155 //y2=2.96
cc_97 ( N_noxref_1_c_4_p N_noxref_8_c_1833_n ) capacitor c=7.37634e-19 \
 //x=9.62 //y=0 //x2=11.84 //y2=2.08
cc_98 ( N_noxref_1_c_7_p N_noxref_8_c_1834_n ) capacitor c=7.64246e-19 \
 //x=24.05 //y=0 //x2=26.27 //y2=2.08
cc_99 ( N_noxref_1_c_71_p N_noxref_9_c_2028_n ) capacitor c=0.0159588f \
 //x=28.12 //y=0 //x2=27.265 //y2=3.7
cc_100 ( N_noxref_1_c_4_p N_noxref_9_c_2029_n ) capacitor c=6.0472e-19 \
 //x=9.62 //y=0 //x2=8.14 //y2=2.08
cc_101 ( N_noxref_1_c_5_p N_noxref_9_c_2030_n ) capacitor c=9.24123e-19 \
 //x=14.43 //y=0 //x2=12.95 //y2=2.08
cc_102 ( N_noxref_1_c_6_p N_noxref_9_c_2031_n ) capacitor c=0.0430857f \
 //x=19.24 //y=0 //x2=18.415 //y2=1.665
cc_103 ( N_noxref_1_c_2_p N_noxref_9_c_2032_n ) capacitor c=9.53263e-19 \
 //x=28.12 //y=0 //x2=27.38 //y2=2.08
cc_104 ( N_noxref_1_c_6_p N_noxref_9_M11_noxref_d ) capacitor c=0.00591582f \
 //x=19.24 //y=0 //x2=17.825 //y2=0.915
cc_105 ( N_noxref_1_c_1_p N_noxref_10_c_2364_n ) capacitor c=0.0178706f \
 //x=0.74 //y=0 //x2=1.11 //y2=2.08
cc_106 ( N_noxref_1_c_106_p N_noxref_10_c_2365_n ) capacitor c=0.00132755f \
 //x=0.99 //y=0 //x2=0.81 //y2=0.875
cc_107 ( N_noxref_1_M0_noxref_d N_noxref_10_c_2365_n ) capacitor c=0.00211996f \
 //x=0.885 //y=0.875 //x2=0.81 //y2=0.875
cc_108 ( N_noxref_1_M0_noxref_d N_noxref_10_c_2367_n ) capacitor c=0.00255985f \
 //x=0.885 //y=0.875 //x2=0.81 //y2=1.22
cc_109 ( N_noxref_1_c_1_p N_noxref_10_c_2368_n ) capacitor c=0.00295461f \
 //x=0.74 //y=0 //x2=0.81 //y2=1.53
cc_110 ( N_noxref_1_c_1_p N_noxref_10_c_2369_n ) capacitor c=0.0126075f \
 //x=0.74 //y=0 //x2=0.81 //y2=1.915
cc_111 ( N_noxref_1_M0_noxref_d N_noxref_10_c_2370_n ) capacitor c=0.0131341f \
 //x=0.885 //y=0.875 //x2=1.185 //y2=0.72
cc_112 ( N_noxref_1_M0_noxref_d N_noxref_10_c_2371_n ) capacitor c=0.00193146f \
 //x=0.885 //y=0.875 //x2=1.185 //y2=1.375
cc_113 ( N_noxref_1_c_72_p N_noxref_10_c_2372_n ) capacitor c=0.00129018f \
 //x=4.64 //y=0 //x2=1.34 //y2=0.875
cc_114 ( N_noxref_1_M0_noxref_d N_noxref_10_c_2372_n ) capacitor c=0.00257848f \
 //x=0.885 //y=0.875 //x2=1.34 //y2=0.875
cc_115 ( N_noxref_1_M0_noxref_d N_noxref_10_c_2374_n ) capacitor c=0.00255985f \
 //x=0.885 //y=0.875 //x2=1.34 //y2=1.22
cc_116 ( N_noxref_1_c_71_p N_noxref_11_c_2421_n ) capacitor c=0.00710541f \
 //x=28.12 //y=0 //x2=1.475 //y2=1.59
cc_117 ( N_noxref_1_c_106_p N_noxref_11_c_2421_n ) capacitor c=0.00110021f \
 //x=0.99 //y=0 //x2=1.475 //y2=1.59
cc_118 ( N_noxref_1_c_72_p N_noxref_11_c_2421_n ) capacitor c=0.00179185f \
 //x=4.64 //y=0 //x2=1.475 //y2=1.59
cc_119 ( N_noxref_1_M0_noxref_d N_noxref_11_c_2421_n ) capacitor c=0.00900091f \
 //x=0.885 //y=0.875 //x2=1.475 //y2=1.59
cc_120 ( N_noxref_1_c_71_p N_noxref_11_c_2425_n ) capacitor c=0.00709506f \
 //x=28.12 //y=0 //x2=1.56 //y2=0.625
cc_121 ( N_noxref_1_c_72_p N_noxref_11_c_2425_n ) capacitor c=0.0140218f \
 //x=4.64 //y=0 //x2=1.56 //y2=0.625
cc_122 ( N_noxref_1_M0_noxref_d N_noxref_11_c_2425_n ) capacitor c=0.033954f \
 //x=0.885 //y=0.875 //x2=1.56 //y2=0.625
cc_123 ( N_noxref_1_c_71_p N_noxref_11_c_2428_n ) capacitor c=0.0151387f \
 //x=28.12 //y=0 //x2=2.445 //y2=0.54
cc_124 ( N_noxref_1_c_72_p N_noxref_11_c_2428_n ) capacitor c=0.0358309f \
 //x=4.64 //y=0 //x2=2.445 //y2=0.54
cc_125 ( N_noxref_1_c_2_p N_noxref_11_c_2428_n ) capacitor c=0.00265129f \
 //x=28.12 //y=0 //x2=2.445 //y2=0.54
cc_126 ( N_noxref_1_c_71_p N_noxref_11_M0_noxref_s ) capacitor c=0.00962687f \
 //x=28.12 //y=0 //x2=0.455 //y2=0.375
cc_127 ( N_noxref_1_c_106_p N_noxref_11_M0_noxref_s ) capacitor c=0.0140218f \
 //x=0.99 //y=0 //x2=0.455 //y2=0.375
cc_128 ( N_noxref_1_c_1_p N_noxref_11_M0_noxref_s ) capacitor c=0.0712607f \
 //x=0.74 //y=0 //x2=0.455 //y2=0.375
cc_129 ( N_noxref_1_c_72_p N_noxref_11_M0_noxref_s ) capacitor c=0.0131437f \
 //x=4.64 //y=0 //x2=0.455 //y2=0.375
cc_130 ( N_noxref_1_c_3_p N_noxref_11_M0_noxref_s ) capacitor c=3.31601e-19 \
 //x=4.81 //y=0 //x2=0.455 //y2=0.375
cc_131 ( N_noxref_1_M0_noxref_d N_noxref_11_M0_noxref_s ) capacitor \
 c=0.033718f //x=0.885 //y=0.875 //x2=0.455 //y2=0.375
cc_132 ( N_noxref_1_c_71_p N_noxref_12_c_2467_n ) capacitor c=0.00352952f \
 //x=28.12 //y=0 //x2=3.015 //y2=0.995
cc_133 ( N_noxref_1_c_72_p N_noxref_12_c_2467_n ) capacitor c=0.00934524f \
 //x=4.64 //y=0 //x2=3.015 //y2=0.995
cc_134 ( N_noxref_1_c_2_p N_noxref_12_c_2467_n ) capacitor c=3.54249e-19 \
 //x=28.12 //y=0 //x2=3.015 //y2=0.995
cc_135 ( N_noxref_1_c_71_p N_noxref_12_c_2470_n ) capacitor c=0.00254475f \
 //x=28.12 //y=0 //x2=3.1 //y2=0.625
cc_136 ( N_noxref_1_c_72_p N_noxref_12_c_2470_n ) capacitor c=0.0140928f \
 //x=4.64 //y=0 //x2=3.1 //y2=0.625
cc_137 ( N_noxref_1_M0_noxref_d N_noxref_12_c_2470_n ) capacitor c=6.21394e-19 \
 //x=0.885 //y=0.875 //x2=3.1 //y2=0.625
cc_138 ( N_noxref_1_c_71_p N_noxref_12_c_2473_n ) capacitor c=0.0105317f \
 //x=28.12 //y=0 //x2=3.985 //y2=0.54
cc_139 ( N_noxref_1_c_72_p N_noxref_12_c_2473_n ) capacitor c=0.0363691f \
 //x=4.64 //y=0 //x2=3.985 //y2=0.54
cc_140 ( N_noxref_1_c_2_p N_noxref_12_c_2473_n ) capacitor c=0.00283214f \
 //x=28.12 //y=0 //x2=3.985 //y2=0.54
cc_141 ( N_noxref_1_c_71_p N_noxref_12_c_2476_n ) capacitor c=0.00254232f \
 //x=28.12 //y=0 //x2=4.07 //y2=0.625
cc_142 ( N_noxref_1_c_72_p N_noxref_12_c_2476_n ) capacitor c=0.0140304f \
 //x=4.64 //y=0 //x2=4.07 //y2=0.625
cc_143 ( N_noxref_1_c_3_p N_noxref_12_c_2476_n ) capacitor c=0.0404137f \
 //x=4.81 //y=0 //x2=4.07 //y2=0.625
cc_144 ( N_noxref_1_M0_noxref_d N_noxref_12_M1_noxref_d ) capacitor \
 c=0.00162435f //x=0.885 //y=0.875 //x2=1.86 //y2=0.91
cc_145 ( N_noxref_1_c_1_p N_noxref_12_M2_noxref_s ) capacitor c=8.16352e-19 \
 //x=0.74 //y=0 //x2=2.965 //y2=0.375
cc_146 ( N_noxref_1_c_3_p N_noxref_12_M2_noxref_s ) capacitor c=0.00183204f \
 //x=4.81 //y=0 //x2=2.965 //y2=0.375
cc_147 ( N_noxref_1_c_71_p N_noxref_13_c_2521_n ) capacitor c=0.00517576f \
 //x=28.12 //y=0 //x2=6.285 //y2=1.59
cc_148 ( N_noxref_1_c_16_p N_noxref_13_c_2521_n ) capacitor c=0.00111448f \
 //x=5.8 //y=0 //x2=6.285 //y2=1.59