// File: DFFSNRNX1.spi.DFFSNRNX1.pxi
// Created: Tue Oct 15 15:47:46 2024
// 
simulator lang=spectre
x_PM_DFFSNRNX1\%GND ( GND N_GND_c_8_p N_GND_c_118_p N_GND_c_1_p N_GND_c_9_p \
 N_GND_c_10_p N_GND_c_14_p N_GND_c_15_p N_GND_c_38_p N_GND_c_45_p N_GND_c_52_p \
 N_GND_c_65_p N_GND_c_72_p N_GND_c_84_p N_GND_c_2_p N_GND_c_3_p N_GND_c_4_p \
 N_GND_c_5_p N_GND_c_6_p N_GND_c_7_p N_GND_M0_noxref_d N_GND_M3_noxref_d \
 N_GND_M6_noxref_d N_GND_M9_noxref_d N_GND_M12_noxref_d N_GND_M15_noxref_d )  \
 PM_DFFSNRNX1\%GND
x_PM_DFFSNRNX1\%VDD ( VDD N_VDD_c_316_p N_VDD_c_309_n N_VDD_c_317_p \
 N_VDD_c_318_p N_VDD_c_324_p N_VDD_c_328_p N_VDD_c_462_p N_VDD_c_337_p \
 N_VDD_c_407_p N_VDD_c_425_p N_VDD_c_429_p N_VDD_c_465_p N_VDD_c_341_p \
 N_VDD_c_366_p N_VDD_c_372_p N_VDD_c_376_p N_VDD_c_468_p N_VDD_c_382_p \
 N_VDD_c_411_p N_VDD_c_493_p N_VDD_c_478_p N_VDD_c_479_p N_VDD_c_439_p \
 N_VDD_c_497_p N_VDD_c_510_p N_VDD_c_514_p N_VDD_c_556_p N_VDD_c_519_p \
 N_VDD_c_548_p N_VDD_c_588_p N_VDD_c_310_n N_VDD_c_311_n N_VDD_c_312_n \
 N_VDD_c_313_n N_VDD_c_314_n N_VDD_c_315_n N_VDD_M18_noxref_s \
 N_VDD_M19_noxref_d N_VDD_M21_noxref_d N_VDD_M23_noxref_d N_VDD_M24_noxref_s \
 N_VDD_M25_noxref_d N_VDD_M27_noxref_d N_VDD_M29_noxref_d N_VDD_M30_noxref_s \
 N_VDD_M31_noxref_d N_VDD_M33_noxref_d N_VDD_M35_noxref_d N_VDD_M36_noxref_s \
 N_VDD_M37_noxref_d N_VDD_M39_noxref_d N_VDD_M41_noxref_d N_VDD_M42_noxref_s \
 N_VDD_M43_noxref_d N_VDD_M45_noxref_d N_VDD_M47_noxref_d N_VDD_M48_noxref_s \
 N_VDD_M49_noxref_d N_VDD_M51_noxref_d N_VDD_M53_noxref_d )  PM_DFFSNRNX1\%VDD
x_PM_DFFSNRNX1\%noxref_3 ( N_noxref_3_c_651_n N_noxref_3_c_655_n \
 N_noxref_3_c_656_n N_noxref_3_c_660_n N_noxref_3_c_685_n N_noxref_3_c_689_n \
 N_noxref_3_c_691_n N_noxref_3_c_695_n N_noxref_3_c_661_n N_noxref_3_c_770_p \
 N_noxref_3_c_699_n N_noxref_3_c_662_n N_noxref_3_c_663_n N_noxref_3_c_817_p \
 N_noxref_3_c_781_p N_noxref_3_M3_noxref_g N_noxref_3_M6_noxref_g \
 N_noxref_3_M24_noxref_g N_noxref_3_M25_noxref_g N_noxref_3_M30_noxref_g \
 N_noxref_3_M31_noxref_g N_noxref_3_c_664_n N_noxref_3_c_666_n \
 N_noxref_3_c_667_n N_noxref_3_c_668_n N_noxref_3_c_669_n N_noxref_3_c_670_n \
 N_noxref_3_c_671_n N_noxref_3_c_673_n N_noxref_3_c_747_p N_noxref_3_c_714_n \
 N_noxref_3_c_674_n N_noxref_3_c_676_n N_noxref_3_c_677_n N_noxref_3_c_678_n \
 N_noxref_3_c_679_n N_noxref_3_c_680_n N_noxref_3_c_681_n N_noxref_3_c_683_n \
 N_noxref_3_c_736_p N_noxref_3_c_716_n N_noxref_3_M2_noxref_d \
 N_noxref_3_M18_noxref_d N_noxref_3_M20_noxref_d N_noxref_3_M22_noxref_d )  \
 PM_DFFSNRNX1\%noxref_3
x_PM_DFFSNRNX1\%noxref_4 ( N_noxref_4_c_902_n N_noxref_4_c_955_n \
 N_noxref_4_c_916_n N_noxref_4_c_920_n N_noxref_4_c_922_n N_noxref_4_c_926_n \
 N_noxref_4_c_903_n N_noxref_4_c_1000_p N_noxref_4_c_930_n N_noxref_4_c_904_n \
 N_noxref_4_c_1010_p N_noxref_4_c_1018_p N_noxref_4_M9_noxref_g \
 N_noxref_4_M36_noxref_g N_noxref_4_M37_noxref_g N_noxref_4_c_905_n \
 N_noxref_4_c_907_n N_noxref_4_c_908_n N_noxref_4_c_909_n N_noxref_4_c_910_n \
 N_noxref_4_c_911_n N_noxref_4_c_912_n N_noxref_4_c_914_n N_noxref_4_c_968_p \
 N_noxref_4_c_938_n N_noxref_4_M8_noxref_d N_noxref_4_M30_noxref_d \
 N_noxref_4_M32_noxref_d N_noxref_4_M34_noxref_d )  PM_DFFSNRNX1\%noxref_4
x_PM_DFFSNRNX1\%CLK ( N_CLK_c_1062_n N_CLK_c_1079_n CLK CLK CLK CLK CLK \
 N_CLK_c_1063_n N_CLK_c_1064_n N_CLK_M4_noxref_g N_CLK_M10_noxref_g \
 N_CLK_M26_noxref_g N_CLK_M27_noxref_g N_CLK_M38_noxref_g N_CLK_M39_noxref_g \
 N_CLK_c_1091_n N_CLK_c_1094_n N_CLK_c_1218_p N_CLK_c_1225_p N_CLK_c_1096_n \
 N_CLK_c_1097_n N_CLK_c_1098_n N_CLK_c_1099_n N_CLK_c_1143_p N_CLK_c_1118_n \
 N_CLK_c_1121_n N_CLK_c_1241_p N_CLK_c_1248_p N_CLK_c_1123_n N_CLK_c_1124_n \
 N_CLK_c_1125_n N_CLK_c_1126_n N_CLK_c_1151_p N_CLK_c_1102_n N_CLK_c_1128_n )  \
 PM_DFFSNRNX1\%CLK
x_PM_DFFSNRNX1\%noxref_6 ( N_noxref_6_c_1253_n N_noxref_6_c_1254_n \
 N_noxref_6_c_1255_n N_noxref_6_c_1325_n N_noxref_6_c_1256_n \
 N_noxref_6_c_1272_n N_noxref_6_c_1276_n N_noxref_6_c_1278_n \
 N_noxref_6_c_1282_n N_noxref_6_c_1257_n N_noxref_6_c_1335_n \
 N_noxref_6_c_1286_n N_noxref_6_c_1258_n N_noxref_6_c_1375_n \
 N_noxref_6_c_1457_p N_noxref_6_M2_noxref_g N_noxref_6_M12_noxref_g \
 N_noxref_6_M22_noxref_g N_noxref_6_M23_noxref_g N_noxref_6_M42_noxref_g \
 N_noxref_6_M43_noxref_g N_noxref_6_c_1342_n N_noxref_6_c_1343_n \
 N_noxref_6_c_1344_n N_noxref_6_c_1345_n N_noxref_6_c_1346_n \
 N_noxref_6_c_1348_n N_noxref_6_c_1349_n N_noxref_6_c_1259_n \
 N_noxref_6_c_1261_n N_noxref_6_c_1262_n N_noxref_6_c_1263_n \
 N_noxref_6_c_1264_n N_noxref_6_c_1265_n N_noxref_6_c_1266_n \
 N_noxref_6_c_1268_n N_noxref_6_c_1402_p N_noxref_6_c_1298_n \
 N_noxref_6_c_1351_n N_noxref_6_c_1352_n N_noxref_6_c_1354_n \
 N_noxref_6_M5_noxref_d N_noxref_6_M24_noxref_d N_noxref_6_M26_noxref_d \
 N_noxref_6_M28_noxref_d )  PM_DFFSNRNX1\%noxref_6
x_PM_DFFSNRNX1\%RN ( N_RN_c_1514_n N_RN_c_1515_n N_RN_c_1536_n N_RN_c_1542_n \
 RN RN RN RN RN RN RN RN RN RN RN RN RN N_RN_c_1516_n N_RN_c_1517_n \
 N_RN_c_1518_n N_RN_M1_noxref_g N_RN_M11_noxref_g N_RN_M13_noxref_g \
 N_RN_M20_noxref_g N_RN_M21_noxref_g N_RN_M40_noxref_g N_RN_M41_noxref_g \
 N_RN_M44_noxref_g N_RN_M45_noxref_g N_RN_c_1755_p N_RN_c_1757_p N_RN_c_1781_p \
 N_RN_c_1788_p N_RN_c_1644_n N_RN_c_1645_n N_RN_c_1646_n N_RN_c_1647_n \
 N_RN_c_1578_n N_RN_c_1603_n N_RN_c_1604_n N_RN_c_1605_n N_RN_c_1724_p \
 N_RN_c_1706_p N_RN_c_1726_p N_RN_c_1707_p N_RN_c_1651_n N_RN_c_1654_n \
 N_RN_c_1811_p N_RN_c_1818_p N_RN_c_1656_n N_RN_c_1657_n N_RN_c_1658_n \
 N_RN_c_1659_n N_RN_c_1674_p N_RN_c_1579_n N_RN_c_1606_n N_RN_c_1608_n \
 N_RN_c_1609_n N_RN_c_1663_n )  PM_DFFSNRNX1\%RN
x_PM_DFFSNRNX1\%QN ( N_QN_c_1823_n N_QN_c_1892_p QN QN QN QN QN QN QN QN \
 N_QN_c_1838_n N_QN_c_1842_n N_QN_c_1844_n N_QN_c_1848_n N_QN_c_1824_n \
 N_QN_c_1894_p N_QN_c_1825_n N_QN_c_1887_n N_QN_c_1936_p N_QN_M15_noxref_g \
 N_QN_M48_noxref_g N_QN_M49_noxref_g N_QN_c_1826_n N_QN_c_1828_n N_QN_c_1829_n \
 N_QN_c_1830_n N_QN_c_1831_n N_QN_c_1832_n N_QN_c_1833_n N_QN_c_1835_n \
 N_QN_c_1901_p N_QN_c_1859_n N_QN_M14_noxref_d N_QN_M42_noxref_d \
 N_QN_M44_noxref_d N_QN_M46_noxref_d )  PM_DFFSNRNX1\%QN
x_PM_DFFSNRNX1\%SN ( N_SN_c_1980_n N_SN_c_1990_n SN SN SN SN SN SN \
 N_SN_c_1991_n N_SN_c_1992_n N_SN_M7_noxref_g N_SN_M16_noxref_g \
 N_SN_M32_noxref_g N_SN_M33_noxref_g N_SN_M50_noxref_g N_SN_M51_noxref_g \
 N_SN_c_2014_n N_SN_c_2017_n N_SN_c_2157_p N_SN_c_2165_p N_SN_c_2019_n \
 N_SN_c_2020_n N_SN_c_2021_n N_SN_c_2022_n N_SN_c_2039_n N_SN_c_2075_n \
 N_SN_c_2078_n N_SN_c_2197_p N_SN_c_2204_p N_SN_c_2080_n N_SN_c_2081_n \
 N_SN_c_2082_n N_SN_c_2083_n N_SN_c_2093_p N_SN_c_2024_n N_SN_c_2085_n )  \
 PM_DFFSNRNX1\%SN
x_PM_DFFSNRNX1\%noxref_10 ( N_noxref_10_c_2214_n N_noxref_10_c_2308_n \
 N_noxref_10_c_2215_n N_noxref_10_c_2278_n N_noxref_10_c_2216_n \
 N_noxref_10_c_2223_n N_noxref_10_c_2209_n N_noxref_10_c_2317_n \
 N_noxref_10_c_2210_n N_noxref_10_c_2225_n N_noxref_10_c_2229_n \
 N_noxref_10_c_2231_n N_noxref_10_c_2235_n N_noxref_10_c_2211_n \
 N_noxref_10_c_2450_n N_noxref_10_c_2239_n N_noxref_10_c_2212_n \
 N_noxref_10_c_2241_n N_noxref_10_c_2326_n N_noxref_10_c_2413_n \
 N_noxref_10_M5_noxref_g N_noxref_10_M8_noxref_g N_noxref_10_M17_noxref_g \
 N_noxref_10_M28_noxref_g N_noxref_10_M29_noxref_g N_noxref_10_M34_noxref_g \
 N_noxref_10_M35_noxref_g N_noxref_10_M52_noxref_g N_noxref_10_M53_noxref_g \
 N_noxref_10_c_2330_n N_noxref_10_c_2331_n N_noxref_10_c_2332_n \
 N_noxref_10_c_2370_n N_noxref_10_c_2371_n N_noxref_10_c_2373_n \
 N_noxref_10_c_2374_n N_noxref_10_c_2291_n N_noxref_10_c_2292_n \
 N_noxref_10_c_2293_n N_noxref_10_c_2294_n N_noxref_10_c_2295_n \
 N_noxref_10_c_2297_n N_noxref_10_c_2298_n N_noxref_10_c_2465_n \
 N_noxref_10_c_2466_n N_noxref_10_c_2467_n N_noxref_10_c_2506_p \
 N_noxref_10_c_2497_p N_noxref_10_c_2508_p N_noxref_10_c_2498_p \
 N_noxref_10_c_2275_n N_noxref_10_c_2335_n N_noxref_10_c_2336_n \
 N_noxref_10_c_2300_n N_noxref_10_c_2301_n N_noxref_10_c_2303_n \
 N_noxref_10_c_2475_n N_noxref_10_c_2477_n N_noxref_10_c_2478_n \
 N_noxref_10_M11_noxref_d N_noxref_10_M36_noxref_d N_noxref_10_M38_noxref_d \
 N_noxref_10_M40_noxref_d )  PM_DFFSNRNX1\%noxref_10
x_PM_DFFSNRNX1\%Q ( N_Q_c_2549_n N_Q_c_2588_n Q Q Q Q Q Q Q Q Q Q Q Q Q \
 N_Q_c_2550_n N_Q_c_2556_n N_Q_c_2560_n N_Q_c_2562_n N_Q_c_2566_n N_Q_c_2551_n \
 N_Q_c_2701_p N_Q_c_2649_n N_Q_c_2671_n N_Q_M14_noxref_g N_Q_M46_noxref_g \
 N_Q_M47_noxref_g N_Q_c_2598_n N_Q_c_2599_n N_Q_c_2600_n N_Q_c_2627_n \
 N_Q_c_2628_n N_Q_c_2630_n N_Q_c_2631_n N_Q_c_2601_n N_Q_c_2603_n N_Q_c_2604_n \
 N_Q_M17_noxref_d N_Q_M48_noxref_d N_Q_M50_noxref_d N_Q_M52_noxref_d )  \
 PM_DFFSNRNX1\%Q
x_PM_DFFSNRNX1\%D ( D D D D D D N_D_c_2706_n N_D_M0_noxref_g N_D_M18_noxref_g \
 N_D_M19_noxref_g N_D_c_2707_n N_D_c_2709_n N_D_c_2710_n N_D_c_2711_n \
 N_D_c_2712_n N_D_c_2713_n N_D_c_2714_n N_D_c_2716_n N_D_c_2729_n N_D_c_2724_n \
 )  PM_DFFSNRNX1\%D
x_PM_DFFSNRNX1\%noxref_13 ( N_noxref_13_c_2790_n N_noxref_13_c_2762_n \
 N_noxref_13_c_2766_n N_noxref_13_c_2769_n N_noxref_13_c_2781_n \
 N_noxref_13_M0_noxref_s )  PM_DFFSNRNX1\%noxref_13
x_PM_DFFSNRNX1\%noxref_14 ( N_noxref_14_c_2808_n N_noxref_14_c_2811_n \
 N_noxref_14_c_2814_n N_noxref_14_c_2817_n N_noxref_14_c_2825_n \
 N_noxref_14_M1_noxref_d N_noxref_14_M2_noxref_s )  PM_DFFSNRNX1\%noxref_14
x_PM_DFFSNRNX1\%noxref_15 ( N_noxref_15_c_2877_n N_noxref_15_c_2861_n \
 N_noxref_15_c_2865_n N_noxref_15_c_2868_n N_noxref_15_c_2888_n \
 N_noxref_15_M3_noxref_s )  PM_DFFSNRNX1\%noxref_15
x_PM_DFFSNRNX1\%noxref_16 ( N_noxref_16_c_2913_n N_noxref_16_c_2916_n \
 N_noxref_16_c_2919_n N_noxref_16_c_2922_n N_noxref_16_c_2945_n \
 N_noxref_16_M4_noxref_d N_noxref_16_M5_noxref_s )  PM_DFFSNRNX1\%noxref_16
x_PM_DFFSNRNX1\%noxref_17 ( N_noxref_17_c_2983_n N_noxref_17_c_2967_n \
 N_noxref_17_c_2971_n N_noxref_17_c_2974_n N_noxref_17_c_2997_n \
 N_noxref_17_M6_noxref_s )  PM_DFFSNRNX1\%noxref_17
x_PM_DFFSNRNX1\%noxref_18 ( N_noxref_18_c_3021_n N_noxref_18_c_3024_n \
 N_noxref_18_c_3027_n N_noxref_18_c_3030_n N_noxref_18_c_3038_n \
 N_noxref_18_M7_noxref_d N_noxref_18_M8_noxref_s )  PM_DFFSNRNX1\%noxref_18
x_PM_DFFSNRNX1\%noxref_19 ( N_noxref_19_c_3091_n N_noxref_19_c_3075_n \
 N_noxref_19_c_3079_n N_noxref_19_c_3082_n N_noxref_19_c_3105_n \
 N_noxref_19_M9_noxref_s )  PM_DFFSNRNX1\%noxref_19
x_PM_DFFSNRNX1\%noxref_20 ( N_noxref_20_c_3125_n N_noxref_20_c_3128_n \
 N_noxref_20_c_3131_n N_noxref_20_c_3134_n N_noxref_20_c_3156_n \
 N_noxref_20_M10_noxref_d N_noxref_20_M11_noxref_s )  PM_DFFSNRNX1\%noxref_20
x_PM_DFFSNRNX1\%noxref_21 ( N_noxref_21_c_3195_n N_noxref_21_c_3179_n \
 N_noxref_21_c_3183_n N_noxref_21_c_3186_n N_noxref_21_c_3207_n \
 N_noxref_21_M12_noxref_s )  PM_DFFSNRNX1\%noxref_21
x_PM_DFFSNRNX1\%noxref_22 ( N_noxref_22_c_3229_n N_noxref_22_c_3232_n \
 N_noxref_22_c_3235_n N_noxref_22_c_3238_n N_noxref_22_c_3258_n \
 N_noxref_22_M13_noxref_d N_noxref_22_M14_noxref_s )  PM_DFFSNRNX1\%noxref_22
x_PM_DFFSNRNX1\%noxref_23 ( N_noxref_23_c_3297_n N_noxref_23_c_3283_n \
 N_noxref_23_c_3287_n N_noxref_23_c_3290_n N_noxref_23_c_3313_n \
 N_noxref_23_M15_noxref_s )  PM_DFFSNRNX1\%noxref_23
x_PM_DFFSNRNX1\%noxref_24 ( N_noxref_24_c_3333_n N_noxref_24_c_3335_n \
 N_noxref_24_c_3338_n N_noxref_24_c_3340_n N_noxref_24_c_3361_n \
 N_noxref_24_M16_noxref_d N_noxref_24_M17_noxref_s )  PM_DFFSNRNX1\%noxref_24
cc_1 ( N_GND_c_1_p N_VDD_c_309_n ) capacitor c=0.00989031f //x=0.74 //y=0 \
 //x2=0.74 //y2=7.4
cc_2 ( N_GND_c_2_p N_VDD_c_310_n ) capacitor c=0.00989031f //x=28.12 //y=0 \
 //x2=28.12 //y2=7.4
cc_3 ( N_GND_c_3_p N_VDD_c_311_n ) capacitor c=0.00891658f //x=4.81 //y=0 \
 //x2=4.81 //y2=7.4
cc_4 ( N_GND_c_4_p N_VDD_c_312_n ) capacitor c=0.00474978f //x=9.62 //y=0 \
 //x2=9.62 //y2=7.4
cc_5 ( N_GND_c_5_p N_VDD_c_313_n ) capacitor c=0.0057235f //x=14.43 //y=0 \
 //x2=14.43 //y2=7.4
cc_6 ( N_GND_c_6_p N_VDD_c_314_n ) capacitor c=0.0057235f //x=19.24 //y=0 \
 //x2=19.24 //y2=7.4
cc_7 ( N_GND_c_7_p N_VDD_c_315_n ) capacitor c=0.0057235f //x=24.05 //y=0 \
 //x2=24.05 //y2=7.4
cc_8 ( N_GND_c_8_p N_noxref_3_c_651_n ) capacitor c=0.0137933f //x=28.12 //y=0 \
 //x2=5.805 //y2=2.965
cc_9 ( N_GND_c_9_p N_noxref_3_c_651_n ) capacitor c=0.0019736f //x=4.64 //y=0 \
 //x2=5.805 //y2=2.965
cc_10 ( N_GND_c_10_p N_noxref_3_c_651_n ) capacitor c=0.00184044f //x=5.8 \
 //y=0 //x2=5.805 //y2=2.965
cc_11 ( N_GND_c_3_p N_noxref_3_c_651_n ) capacitor c=0.014386f //x=4.81 //y=0 \
 //x2=5.805 //y2=2.965
cc_12 ( N_GND_c_8_p N_noxref_3_c_655_n ) capacitor c=0.00197533f //x=28.12 \
 //y=0 //x2=4.185 //y2=2.965
cc_13 ( N_GND_c_8_p N_noxref_3_c_656_n ) capacitor c=0.0371387f //x=28.12 \
 //y=0 //x2=10.615 //y2=2.965
cc_14 ( N_GND_c_14_p N_noxref_3_c_656_n ) capacitor c=0.00285709f //x=9.45 \
 //y=0 //x2=10.615 //y2=2.965
cc_15 ( N_GND_c_15_p N_noxref_3_c_656_n ) capacitor c=0.00184044f //x=10.61 \
 //y=0 //x2=10.615 //y2=2.965
cc_16 ( N_GND_c_4_p N_noxref_3_c_656_n ) capacitor c=0.014386f //x=9.62 //y=0 \
 //x2=10.615 //y2=2.965
cc_17 ( N_GND_c_8_p N_noxref_3_c_660_n ) capacitor c=0.00182434f //x=28.12 \
 //y=0 //x2=6.035 //y2=2.965
cc_18 ( N_GND_c_3_p N_noxref_3_c_661_n ) capacitor c=0.0459494f //x=4.81 //y=0 \
 //x2=3.985 //y2=1.665
cc_19 ( N_GND_c_3_p N_noxref_3_c_662_n ) capacitor c=0.0179249f //x=4.81 //y=0 \
 //x2=5.92 //y2=2.08
cc_20 ( N_GND_c_4_p N_noxref_3_c_663_n ) capacitor c=0.0176137f //x=9.62 //y=0 \
 //x2=10.73 //y2=2.08
cc_21 ( N_GND_c_10_p N_noxref_3_c_664_n ) capacitor c=0.00132755f //x=5.8 \
 //y=0 //x2=5.62 //y2=0.875
cc_22 ( N_GND_M3_noxref_d N_noxref_3_c_664_n ) capacitor c=0.00211996f \
 //x=5.695 //y=0.875 //x2=5.62 //y2=0.875
cc_23 ( N_GND_M3_noxref_d N_noxref_3_c_666_n ) capacitor c=0.00255985f \
 //x=5.695 //y=0.875 //x2=5.62 //y2=1.22
cc_24 ( N_GND_c_3_p N_noxref_3_c_667_n ) capacitor c=0.00204716f //x=4.81 \
 //y=0 //x2=5.62 //y2=1.53
cc_25 ( N_GND_c_3_p N_noxref_3_c_668_n ) capacitor c=0.0126573f //x=4.81 //y=0 \
 //x2=5.62 //y2=1.915
cc_26 ( N_GND_M3_noxref_d N_noxref_3_c_669_n ) capacitor c=0.0131341f \
 //x=5.695 //y=0.875 //x2=5.995 //y2=0.72
cc_27 ( N_GND_M3_noxref_d N_noxref_3_c_670_n ) capacitor c=0.00193146f \
 //x=5.695 //y=0.875 //x2=5.995 //y2=1.375
cc_28 ( N_GND_c_14_p N_noxref_3_c_671_n ) capacitor c=0.00129018f //x=9.45 \
 //y=0 //x2=6.15 //y2=0.875
cc_29 ( N_GND_M3_noxref_d N_noxref_3_c_671_n ) capacitor c=0.00257848f \
 //x=5.695 //y=0.875 //x2=6.15 //y2=0.875
cc_30 ( N_GND_M3_noxref_d N_noxref_3_c_673_n ) capacitor c=0.00255985f \
 //x=5.695 //y=0.875 //x2=6.15 //y2=1.22
cc_31 ( N_GND_c_15_p N_noxref_3_c_674_n ) capacitor c=0.00132755f //x=10.61 \
 //y=0 //x2=10.43 //y2=0.875
cc_32 ( N_GND_M6_noxref_d N_noxref_3_c_674_n ) capacitor c=0.00211996f \
 //x=10.505 //y=0.875 //x2=10.43 //y2=0.875
cc_33 ( N_GND_M6_noxref_d N_noxref_3_c_676_n ) capacitor c=0.00255985f \
 //x=10.505 //y=0.875 //x2=10.43 //y2=1.22
cc_34 ( N_GND_c_4_p N_noxref_3_c_677_n ) capacitor c=0.00204716f //x=9.62 \
 //y=0 //x2=10.43 //y2=1.53
cc_35 ( N_GND_c_4_p N_noxref_3_c_678_n ) capacitor c=0.0126573f //x=9.62 //y=0 \
 //x2=10.43 //y2=1.915
cc_36 ( N_GND_M6_noxref_d N_noxref_3_c_679_n ) capacitor c=0.0131341f \
 //x=10.505 //y=0.875 //x2=10.805 //y2=0.72
cc_37 ( N_GND_M6_noxref_d N_noxref_3_c_680_n ) capacitor c=0.00193146f \
 //x=10.505 //y=0.875 //x2=10.805 //y2=1.375
cc_38 ( N_GND_c_38_p N_noxref_3_c_681_n ) capacitor c=0.00129018f //x=14.26 \
 //y=0 //x2=10.96 //y2=0.875
cc_39 ( N_GND_M6_noxref_d N_noxref_3_c_681_n ) capacitor c=0.00257848f \
 //x=10.505 //y=0.875 //x2=10.96 //y2=0.875
cc_40 ( N_GND_M6_noxref_d N_noxref_3_c_683_n ) capacitor c=0.00255985f \
 //x=10.505 //y=0.875 //x2=10.96 //y2=1.22
cc_41 ( N_GND_c_3_p N_noxref_3_M2_noxref_d ) capacitor c=0.00591582f //x=4.81 \
 //y=0 //x2=3.395 //y2=0.915
cc_42 ( N_GND_c_5_p N_noxref_4_c_902_n ) capacitor c=0.00750857f //x=14.43 \
 //y=0 //x2=15.425 //y2=2.96
cc_43 ( N_GND_c_5_p N_noxref_4_c_903_n ) capacitor c=0.0432345f //x=14.43 \
 //y=0 //x2=13.605 //y2=1.665
cc_44 ( N_GND_c_5_p N_noxref_4_c_904_n ) capacitor c=0.0153336f //x=14.43 \
 //y=0 //x2=15.54 //y2=2.08
cc_45 ( N_GND_c_45_p N_noxref_4_c_905_n ) capacitor c=0.00132755f //x=15.42 \
 //y=0 //x2=15.24 //y2=0.875
cc_46 ( N_GND_M9_noxref_d N_noxref_4_c_905_n ) capacitor c=0.00211996f \
 //x=15.315 //y=0.875 //x2=15.24 //y2=0.875
cc_47 ( N_GND_M9_noxref_d N_noxref_4_c_907_n ) capacitor c=0.00255985f \
 //x=15.315 //y=0.875 //x2=15.24 //y2=1.22
cc_48 ( N_GND_c_5_p N_noxref_4_c_908_n ) capacitor c=0.00204716f //x=14.43 \
 //y=0 //x2=15.24 //y2=1.53
cc_49 ( N_GND_c_5_p N_noxref_4_c_909_n ) capacitor c=0.0126573f //x=14.43 \
 //y=0 //x2=15.24 //y2=1.915
cc_50 ( N_GND_M9_noxref_d N_noxref_4_c_910_n ) capacitor c=0.0131341f \
 //x=15.315 //y=0.875 //x2=15.615 //y2=0.72
cc_51 ( N_GND_M9_noxref_d N_noxref_4_c_911_n ) capacitor c=0.00193146f \
 //x=15.315 //y=0.875 //x2=15.615 //y2=1.375
cc_52 ( N_GND_c_52_p N_noxref_4_c_912_n ) capacitor c=0.00129018f //x=19.07 \
 //y=0 //x2=15.77 //y2=0.875
cc_53 ( N_GND_M9_noxref_d N_noxref_4_c_912_n ) capacitor c=0.00257848f \
 //x=15.315 //y=0.875 //x2=15.77 //y2=0.875
cc_54 ( N_GND_M9_noxref_d N_noxref_4_c_914_n ) capacitor c=0.00255985f \
 //x=15.315 //y=0.875 //x2=15.77 //y2=1.22
cc_55 ( N_GND_c_5_p N_noxref_4_M8_noxref_d ) capacitor c=0.00591582f //x=14.43 \
 //y=0 //x2=13.015 //y2=0.915
cc_56 ( N_GND_c_8_p N_CLK_c_1062_n ) capacitor c=0.0284311f //x=28.12 //y=0 \
 //x2=16.535 //y2=3.33
cc_57 ( N_GND_c_3_p N_CLK_c_1063_n ) capacitor c=7.64246e-19 //x=4.81 //y=0 \
 //x2=7.03 //y2=2.08
cc_58 ( N_GND_c_5_p N_CLK_c_1064_n ) capacitor c=6.4925e-19 //x=14.43 //y=0 \
 //x2=16.65 //y2=2.08
cc_59 ( N_GND_c_8_p N_noxref_6_c_1253_n ) capacitor c=0.00825249f //x=28.12 \
 //y=0 //x2=8.765 //y2=3.7
cc_60 ( N_GND_c_8_p N_noxref_6_c_1254_n ) capacitor c=0.00154647f //x=28.12 \
 //y=0 //x2=3.445 //y2=3.7
cc_61 ( N_GND_c_6_p N_noxref_6_c_1255_n ) capacitor c=0.0034979f //x=19.24 \
 //y=0 //x2=20.235 //y2=3.7
cc_62 ( N_GND_c_3_p N_noxref_6_c_1256_n ) capacitor c=9.53263e-19 //x=4.81 \
 //y=0 //x2=3.33 //y2=2.08
cc_63 ( N_GND_c_4_p N_noxref_6_c_1257_n ) capacitor c=0.0455868f //x=9.62 \
 //y=0 //x2=8.795 //y2=1.665
cc_64 ( N_GND_c_6_p N_noxref_6_c_1258_n ) capacitor c=0.0153336f //x=19.24 \
 //y=0 //x2=20.35 //y2=2.08
cc_65 ( N_GND_c_65_p N_noxref_6_c_1259_n ) capacitor c=0.00132755f //x=20.23 \
 //y=0 //x2=20.05 //y2=0.875
cc_66 ( N_GND_M12_noxref_d N_noxref_6_c_1259_n ) capacitor c=0.00211996f \
 //x=20.125 //y=0.875 //x2=20.05 //y2=0.875
cc_67 ( N_GND_M12_noxref_d N_noxref_6_c_1261_n ) capacitor c=0.00255985f \
 //x=20.125 //y=0.875 //x2=20.05 //y2=1.22
cc_68 ( N_GND_c_6_p N_noxref_6_c_1262_n ) capacitor c=0.00204716f //x=19.24 \
 //y=0 //x2=20.05 //y2=1.53
cc_69 ( N_GND_c_6_p N_noxref_6_c_1263_n ) capacitor c=0.0126573f //x=19.24 \
 //y=0 //x2=20.05 //y2=1.915
cc_70 ( N_GND_M12_noxref_d N_noxref_6_c_1264_n ) capacitor c=0.0131341f \
 //x=20.125 //y=0.875 //x2=20.425 //y2=0.72
cc_71 ( N_GND_M12_noxref_d N_noxref_6_c_1265_n ) capacitor c=0.00193146f \
 //x=20.125 //y=0.875 //x2=20.425 //y2=1.375
cc_72 ( N_GND_c_72_p N_noxref_6_c_1266_n ) capacitor c=0.00129018f //x=23.88 \
 //y=0 //x2=20.58 //y2=0.875
cc_73 ( N_GND_M12_noxref_d N_noxref_6_c_1266_n ) capacitor c=0.00257848f \
 //x=20.125 //y=0.875 //x2=20.58 //y2=0.875
cc_74 ( N_GND_M12_noxref_d N_noxref_6_c_1268_n ) capacitor c=0.00255985f \
 //x=20.125 //y=0.875 //x2=20.58 //y2=1.22
cc_75 ( N_GND_c_4_p N_noxref_6_M5_noxref_d ) capacitor c=0.00591582f //x=9.62 \
 //y=0 //x2=8.205 //y2=0.915
cc_76 ( N_GND_c_8_p N_RN_c_1514_n ) capacitor c=0.00571459f //x=28.12 //y=0 \
 //x2=17.645 //y2=4.44
cc_77 ( N_GND_c_8_p N_RN_c_1515_n ) capacitor c=0.00132659f //x=28.12 //y=0 \
 //x2=2.335 //y2=4.44
cc_78 ( N_GND_c_1_p N_RN_c_1516_n ) capacitor c=7.64246e-19 //x=0.74 //y=0 \
 //x2=2.22 //y2=2.08
cc_79 ( N_GND_c_6_p N_RN_c_1517_n ) capacitor c=7.09207e-19 //x=19.24 //y=0 \
 //x2=17.76 //y2=2.08
cc_80 ( N_GND_c_6_p N_RN_c_1518_n ) capacitor c=6.4925e-19 //x=19.24 //y=0 \
 //x2=21.46 //y2=2.08
cc_81 ( N_GND_c_7_p N_QN_c_1823_n ) capacitor c=0.00505527f //x=24.05 //y=0 \
 //x2=25.045 //y2=3.33
cc_82 ( N_GND_c_7_p N_QN_c_1824_n ) capacitor c=0.0432429f //x=24.05 //y=0 \
 //x2=23.225 //y2=1.665
cc_83 ( N_GND_c_7_p N_QN_c_1825_n ) capacitor c=0.0152529f //x=24.05 //y=0 \
 //x2=25.16 //y2=2.08
cc_84 ( N_GND_c_84_p N_QN_c_1826_n ) capacitor c=0.00132755f //x=25.04 //y=0 \
 //x2=24.86 //y2=0.875
cc_85 ( N_GND_M15_noxref_d N_QN_c_1826_n ) capacitor c=0.00211996f //x=24.935 \
 //y=0.875 //x2=24.86 //y2=0.875
cc_86 ( N_GND_M15_noxref_d N_QN_c_1828_n ) capacitor c=0.00255985f //x=24.935 \
 //y=0.875 //x2=24.86 //y2=1.22
cc_87 ( N_GND_c_7_p N_QN_c_1829_n ) capacitor c=0.00204716f //x=24.05 //y=0 \
 //x2=24.86 //y2=1.53
cc_88 ( N_GND_c_7_p N_QN_c_1830_n ) capacitor c=0.0126573f //x=24.05 //y=0 \
 //x2=24.86 //y2=1.915
cc_89 ( N_GND_M15_noxref_d N_QN_c_1831_n ) capacitor c=0.0131341f //x=24.935 \
 //y=0.875 //x2=25.235 //y2=0.72
cc_90 ( N_GND_M15_noxref_d N_QN_c_1832_n ) capacitor c=0.00193146f //x=24.935 \
 //y=0.875 //x2=25.235 //y2=1.375
cc_91 ( N_GND_c_2_p N_QN_c_1833_n ) capacitor c=0.00129018f //x=28.12 //y=0 \
 //x2=25.39 //y2=0.875
cc_92 ( N_GND_M15_noxref_d N_QN_c_1833_n ) capacitor c=0.00257848f //x=24.935 \
 //y=0.875 //x2=25.39 //y2=0.875
cc_93 ( N_GND_M15_noxref_d N_QN_c_1835_n ) capacitor c=0.00255985f //x=24.935 \
 //y=0.875 //x2=25.39 //y2=1.22
cc_94 ( N_GND_c_7_p N_QN_M14_noxref_d ) capacitor c=0.00591582f //x=24.05 \
 //y=0 //x2=22.635 //y2=0.915
cc_95 ( N_GND_c_8_p N_SN_c_1980_n ) capacitor c=0.120604f //x=28.12 //y=0 \
 //x2=26.155 //y2=2.59
cc_96 ( N_GND_c_38_p N_SN_c_1980_n ) capacitor c=0.00342161f //x=14.26 //y=0 \
 //x2=26.155 //y2=2.59
cc_97 ( N_GND_c_45_p N_SN_c_1980_n ) capacitor c=0.00221947f //x=15.42 //y=0 \
 //x2=26.155 //y2=2.59
cc_98 ( N_GND_c_52_p N_SN_c_1980_n ) capacitor c=0.00344363f //x=19.07 //y=0 \
 //x2=26.155 //y2=2.59
cc_99 ( N_GND_c_65_p N_SN_c_1980_n ) capacitor c=0.00221947f //x=20.23 //y=0 \
 //x2=26.155 //y2=2.59
cc_100 ( N_GND_c_72_p N_SN_c_1980_n ) capacitor c=0.00344363f //x=23.88 //y=0 \
 //x2=26.155 //y2=2.59
cc_101 ( N_GND_c_84_p N_SN_c_1980_n ) capacitor c=0.00221947f //x=25.04 //y=0 \
 //x2=26.155 //y2=2.59
cc_102 ( N_GND_c_5_p N_SN_c_1980_n ) capacitor c=0.0338055f //x=14.43 //y=0 \
 //x2=26.155 //y2=2.59
cc_103 ( N_GND_c_6_p N_SN_c_1980_n ) capacitor c=0.0377057f //x=19.24 //y=0 \
 //x2=26.155 //y2=2.59
cc_104 ( N_GND_c_7_p N_SN_c_1980_n ) capacitor c=0.0360747f //x=24.05 //y=0 \
 //x2=26.155 //y2=2.59
cc_105 ( N_GND_c_8_p N_SN_c_1990_n ) capacitor c=0.00219703f //x=28.12 //y=0 \
 //x2=11.955 //y2=2.59
cc_106 ( N_GND_c_4_p N_SN_c_1991_n ) capacitor c=9.22578e-19 //x=9.62 //y=0 \
 //x2=11.84 //y2=2.08
cc_107 ( N_GND_c_7_p N_SN_c_1992_n ) capacitor c=6.9062e-19 //x=24.05 //y=0 \
 //x2=26.27 //y2=2.08
cc_108 ( N_GND_c_4_p N_noxref_10_c_2209_n ) capacitor c=9.53263e-19 //x=9.62 \
 //y=0 //x2=8.14 //y2=2.08
cc_109 ( N_GND_c_5_p N_noxref_10_c_2210_n ) capacitor c=7.95208e-19 //x=14.43 \
 //y=0 //x2=12.95 //y2=2.08
cc_110 ( N_GND_c_6_p N_noxref_10_c_2211_n ) capacitor c=0.0433371f //x=19.24 \
 //y=0 //x2=18.415 //y2=1.665
cc_111 ( N_GND_c_2_p N_noxref_10_c_2212_n ) capacitor c=0.00128267f //x=28.12 \
 //y=0 //x2=27.38 //y2=2.08
cc_112 ( N_GND_c_6_p N_noxref_10_M11_noxref_d ) capacitor c=0.00591582f \
 //x=19.24 //y=0 //x2=17.825 //y2=0.915
cc_113 ( N_GND_c_8_p N_Q_c_2549_n ) capacitor c=0.0135088f //x=28.12 //y=0 \
 //x2=28.005 //y2=3.7
cc_114 ( N_GND_c_7_p N_Q_c_2550_n ) capacitor c=7.09207e-19 //x=24.05 //y=0 \
 //x2=22.57 //y2=2.08
cc_115 ( N_GND_c_2_p N_Q_c_2551_n ) capacitor c=0.0461865f //x=28.12 //y=0 \
 //x2=28.035 //y2=1.665
cc_116 ( N_GND_c_2_p N_Q_M17_noxref_d ) capacitor c=0.00593061f //x=28.12 \
 //y=0 //x2=27.445 //y2=0.915
cc_117 ( N_GND_c_1_p N_D_c_2706_n ) capacitor c=0.0180363f //x=0.74 //y=0 \
 //x2=1.11 //y2=2.08
cc_118 ( N_GND_c_118_p N_D_c_2707_n ) capacitor c=0.00132755f //x=0.99 //y=0 \
 //x2=0.81 //y2=0.875
cc_119 ( N_GND_M0_noxref_d N_D_c_2707_n ) capacitor c=0.00211996f //x=0.885 \
 //y=0.875 //x2=0.81 //y2=0.875
cc_120 ( N_GND_M0_noxref_d N_D_c_2709_n ) capacitor c=0.00255985f //x=0.885 \
 //y=0.875 //x2=0.81 //y2=1.22
cc_121 ( N_GND_c_1_p N_D_c_2710_n ) capacitor c=0.00295461f //x=0.74 //y=0 \
 //x2=0.81 //y2=1.53
cc_122 ( N_GND_c_1_p N_D_c_2711_n ) capacitor c=0.0134214f //x=0.74 //y=0 \
 //x2=0.81 //y2=1.915
cc_123 ( N_GND_M0_noxref_d N_D_c_2712_n ) capacitor c=0.0131341f //x=0.885 \
 //y=0.875 //x2=1.185 //y2=0.72
cc_124 ( N_GND_M0_noxref_d N_D_c_2713_n ) capacitor c=0.00193146f //x=0.885 \
 //y=0.875 //x2=1.185 //y2=1.375
cc_125 ( N_GND_c_9_p N_D_c_2714_n ) capacitor c=0.00129018f //x=4.64 //y=0 \
 //x2=1.34 //y2=0.875
cc_126 ( N_GND_M0_noxref_d N_D_c_2714_n ) capacitor c=0.00257848f //x=0.885 \
 //y=0.875 //x2=1.34 //y2=0.875
cc_127 ( N_GND_M0_noxref_d N_D_c_2716_n ) capacitor c=0.00255985f //x=0.885 \
 //y=0.875 //x2=1.34 //y2=1.22
cc_128 ( N_GND_c_8_p N_noxref_13_c_2762_n ) capacitor c=0.00710541f //x=28.12 \
 //y=0 //x2=1.475 //y2=1.59
cc_129 ( N_GND_c_118_p N_noxref_13_c_2762_n ) capacitor c=0.00110021f //x=0.99 \
 //y=0 //x2=1.475 //y2=1.59
cc_130 ( N_GND_c_9_p N_noxref_13_c_2762_n ) capacitor c=0.00179185f //x=4.64 \
 //y=0 //x2=1.475 //y2=1.59
cc_131 ( N_GND_M0_noxref_d N_noxref_13_c_2762_n ) capacitor c=0.00900091f \
 //x=0.885 //y=0.875 //x2=1.475 //y2=1.59
cc_132 ( N_GND_c_8_p N_noxref_13_c_2766_n ) capacitor c=0.00709506f //x=28.12 \
 //y=0 //x2=1.56 //y2=0.625
cc_133 ( N_GND_c_9_p N_noxref_13_c_2766_n ) capacitor c=0.0140218f //x=4.64 \
 //y=0 //x2=1.56 //y2=0.625
cc_134 ( N_GND_M0_noxref_d N_noxref_13_c_2766_n ) capacitor c=0.033954f \
 //x=0.885 //y=0.875 //x2=1.56 //y2=0.625
cc_135 ( N_GND_c_8_p N_noxref_13_c_2769_n ) capacitor c=0.0169144f //x=28.12 \
 //y=0 //x2=2.445 //y2=0.54
cc_136 ( N_GND_c_9_p N_noxref_13_c_2769_n ) capacitor c=0.0356078f //x=4.64 \
 //y=0 //x2=2.445 //y2=0.54
cc_137 ( N_GND_c_2_p N_noxref_13_c_2769_n ) capacitor c=0.00265129f //x=28.12 \
 //y=0 //x2=2.445 //y2=0.54
cc_138 ( N_GND_c_8_p N_noxref_13_M0_noxref_s ) capacitor c=0.0126182f \
 //x=28.12 //y=0 //x2=0.455 //y2=0.375
cc_139 ( N_GND_c_118_p N_noxref_13_M0_noxref_s ) capacitor c=0.0140218f \
 //x=0.99 //y=0 //x2=0.455 //y2=0.375
cc_140 ( N_GND_c_1_p N_noxref_13_M0_noxref_s ) capacitor c=0.0712607f //x=0.74 \
 //y=0 //x2=0.455 //y2=0.375
cc_141 ( N_GND_c_9_p N_noxref_13_M0_noxref_s ) capacitor c=0.0131422f //x=4.64 \
 //y=0 //x2=0.455 //y2=0.375
cc_142 ( N_GND_c_3_p N_noxref_13_M0_noxref_s ) capacitor c=3.31601e-19 \
 //x=4.81 //y=0 //x2=0.455 //y2=0.375
cc_143 ( N_GND_M0_noxref_d N_noxref_13_M0_noxref_s ) capacitor c=0.033718f \
 //x=0.885 //y=0.875 //x2=0.455 //y2=0.375
cc_144 ( N_GND_c_8_p N_noxref_14_c_2808_n ) capacitor c=0.00667057f //x=28.12 \
 //y=0 //x2=3.015 //y2=0.995
cc_145 ( N_GND_c_9_p N_noxref_14_c_2808_n ) capacitor c=0.00829979f //x=4.64 \
 //y=0 //x2=3.015 //y2=0.995
cc_146 ( N_GND_c_2_p N_noxref_14_c_2808_n ) capacitor c=3.54249e-19 //x=28.12 \
 //y=0 //x2=3.015 //y2=0.995
cc_147 ( N_GND_c_8_p N_noxref_14_c_2811_n ) capacitor c=0.00583375f //x=28.12 \
 //y=0 //x2=3.1 //y2=0.625
cc_148 ( N_GND_c_9_p N_noxref_14_c_2811_n ) capacitor c=0.0140218f //x=4.64 \
 //y=0 //x2=3.1 //y2=0.625
cc_149 ( N_GND_M0_noxref_d N_noxref_14_c_2811_n ) capacitor c=6.21394e-19 \
 //x=0.885 //y=0.875 //x2=3.1 //y2=0.625
cc_150 ( N_GND_c_8_p N_noxref_14_c_2814_n ) capacitor c=0.0121495f //x=28.12 \
 //y=0 //x2=3.985 //y2=0.54
cc_151 ( N_GND_c_9_p N_noxref_14_c_2814_n ) capacitor c=0.0362581f //x=4.64 \
 //y=0 //x2=3.985 //y2=0.54
cc_152 ( N_GND_c_2_p N_noxref_14_c_2814_n ) capacitor c=0.00283214f //x=28.12 \
 //y=0 //x2=3.985 //y2=0.54
cc_153 ( N_GND_c_8_p N_noxref_14_c_2817_n ) capacitor c=0.00276729f //x=28.12 \
 //y=0 //x2=4.07 //y2=0.625
cc_154 ( N_GND_c_9_p N_noxref_14_c_2817_n ) capacitor c=0.0141921f //x=4.64 \
 //y=0 //x2=4.07 //y2=0.625
cc_155 ( N_GND_c_3_p N_noxref_14_c_2817_n ) capacitor c=0.0404137f //x=4.81 \
 //y=0 //x2=4.07 //y2=0.625
cc_156 ( N_GND_M0_noxref_d N_noxref_14_M1_noxref_d ) capacitor c=0.00162435f \
 //x=0.885 //y=0.875 //x2=1.86 //y2=0.91
cc_157 ( N_GND_c_1_p N_noxref_14_M2_noxref_s ) capacitor c=8.16352e-19 \
 //x=0.74 //y=0 //x2=2.965 //y2=0.375
cc_158 ( N_GND_c_3_p N_noxref_14_M2_noxref_s ) capacitor c=0.00183204f \
 //x=4.81 //y=0 //x2=2.965 //y2=0.375
cc_159 ( N_GND_c_8_p N_noxref_15_c_2861_n ) capacitor c=0.00540769f //x=28.12 \
 //y=0 //x2=6.285 //y2=1.59
cc_160 ( N_GND_c_10_p N_noxref_15_c_2861_n ) capacitor c=0.00111539f //x=5.8 \
 //y=0 //x2=6.285 //y2=1.59
cc_161 ( N_GND_c_14_p N_noxref_15_c_2861_n ) capacitor c=0.00180703f //x=9.45 \
 //y=0 //x2=6.285 //y2=1.59
cc_162 ( N_GND_M3_noxref_d N_noxref_15_c_2861_n ) capacitor c=0.00879948f \
 //x=5.695 //y=0.875 //x2=6.285 //y2=1.59
cc_163 ( N_GND_c_8_p N_noxref_15_c_2865_n ) capacitor c=0.00277721f //x=28.12 \
 //y=0 //x2=6.37 //y2=0.625
cc_164 ( N_GND_c_14_p N_noxref_15_c_2865_n ) capacitor c=0.0142595f //x=9.45 \
 //y=0 //x2=6.37 //y2=0.625
cc_165 ( N_GND_M3_noxref_d N_noxref_15_c_2865_n ) capacitor c=0.033954f \
 //x=5.695 //y=0.875 //x2=6.37 //y2=0.625
cc_166 ( N_GND_c_8_p N_noxref_15_c_2868_n ) capacitor c=0.0113743f //x=28.12 \
 //y=0 //x2=7.255 //y2=0.54
cc_167 ( N_GND_c_14_p N_noxref_15_c_2868_n ) capacitor c=0.0361685f //x=9.45 \
 //y=0 //x2=7.255 //y2=0.54
cc_168 ( N_GND_c_2_p N_noxref_15_c_2868_n ) capacitor c=0.00265129f //x=28.12 \
 //y=0 //x2=7.255 //y2=0.54
cc_169 ( N_GND_c_8_p N_noxref_15_M3_noxref_s ) capacitor c=0.00554931f \
 //x=28.12 //y=0 //x2=5.265 //y2=0.375
cc_170 ( N_GND_c_10_p N_noxref_15_M3_noxref_s ) capacitor c=0.0142595f //x=5.8 \
 //y=0 //x2=5.265 //y2=0.375
cc_171 ( N_GND_c_14_p N_noxref_15_M3_noxref_s ) capacitor c=0.0138379f \
 //x=9.45 //y=0 //x2=5.265 //y2=0.375
cc_172 ( N_GND_c_3_p N_noxref_15_M3_noxref_s ) capacitor c=0.0696963f //x=4.81 \
 //y=0 //x2=5.265 //y2=0.375
cc_173 ( N_GND_c_4_p N_noxref_15_M3_noxref_s ) capacitor c=3.31601e-19 \
 //x=9.62 //y=0 //x2=5.265 //y2=0.375
cc_174 ( N_GND_M3_noxref_d N_noxref_15_M3_noxref_s ) capacitor c=0.033718f \
 //x=5.695 //y=0.875 //x2=5.265 //y2=0.375