// File: dffx1_pcell.spi.pex
// Created: Tue Oct 15 15:56:33 2024
// Program "Calibre xRC"
// Version "v2023.2_27.15"
// Nominal Temperature: 30C
// Circuit Temperature: 30C
// 
simulator lang=spectre
subckt PM_DFFX1_PCELL\%noxref_1 ( 37 41 44 49 59 67 75 81 87 95 103 111 119 \
 130 134 136 139 141 143 146 147 148 149 150 151 )
c257 ( 151 0 ) capacitor c=0.0208202f //x=19.12 //y=0.865
c258 ( 150 0 ) capacitor c=0.0208124f //x=15.79 //y=0.865
c259 ( 149 0 ) capacitor c=0.0208017f //x=12.46 //y=0.865
c260 ( 148 0 ) capacitor c=0.0208017f //x=9.13 //y=0.865
c261 ( 147 0 ) capacitor c=0.0208019f //x=5.8 //y=0.865
c262 ( 146 0 ) capacitor c=0.022675f //x=0.885 //y=0.875
c263 ( 145 0 ) capacitor c=0.00440095f //x=19.24 //y=0
c264 ( 143 0 ) capacitor c=0.108011f //x=18.13 //y=0
c265 ( 142 0 ) capacitor c=0.00440095f //x=15.98 //y=0
c266 ( 141 0 ) capacitor c=0.107594f //x=14.8 //y=0
c267 ( 140 0 ) capacitor c=0.00440095f //x=12.65 //y=0
c268 ( 139 0 ) capacitor c=0.107063f //x=11.47 //y=0
c269 ( 138 0 ) capacitor c=0.00440095f //x=9.25 //y=0
c270 ( 136 0 ) capacitor c=0.107063f //x=8.14 //y=0
c271 ( 135 0 ) capacitor c=0.00440095f //x=5.99 //y=0
c272 ( 134 0 ) capacitor c=0.109996f //x=4.81 //y=0
c273 ( 133 0 ) capacitor c=0.00440144f //x=1.075 //y=0
c274 ( 130 0 ) capacitor c=0.25934f //x=21.09 //y=0
c275 ( 119 0 ) capacitor c=0.0426751f //x=19.225 //y=0
c276 ( 111 0 ) capacitor c=0.0751168f //x=17.96 //y=0
c277 ( 103 0 ) capacitor c=0.0426751f //x=15.895 //y=0
c278 ( 95 0 ) capacitor c=0.0751168f //x=14.63 //y=0
c279 ( 87 0 ) capacitor c=0.0389288f //x=12.565 //y=0
c280 ( 81 0 ) capacitor c=0.0720403f //x=11.3 //y=0
c281 ( 75 0 ) capacitor c=0.0389288f //x=9.235 //y=0
c282 ( 67 0 ) capacitor c=0.0720423f //x=7.97 //y=0
c283 ( 59 0 ) capacitor c=0.0389288f //x=5.905 //y=0
c284 ( 49 0 ) capacitor c=0.131745f //x=4.64 //y=0
c285 ( 44 0 ) capacitor c=0.178285f //x=0.74 //y=0
c286 ( 41 0 ) capacitor c=0.0367385f //x=0.99 //y=0
c287 ( 37 0 ) capacitor c=0.713f //x=21.09 //y=0
r288 (  128 130 ) resistor r=26.5322 //w=0.357 //l=0.74 //layer=li \
 //thickness=0.1 //x=20.35 //y=0 //x2=21.09 //y2=0
r289 (  126 145 ) resistor r=2.94794 //w=0.34 //l=0.085 //layer=li \
 //thickness=0.1 //x=19.395 //y=0 //x2=19.31 //y2=0
r290 (  126 128 ) resistor r=34.2409 //w=0.357 //l=0.955 //layer=li \
 //thickness=0.1 //x=19.395 //y=0 //x2=20.35 //y2=0
r291 (  121 145 ) resistor r=4.11603 //w=0.68 //l=0.17 //layer=li \
 //thickness=0.1 //x=19.31 //y=0.17 //x2=19.31 //y2=0
r292 (  121 151 ) resistor r=53.7326 //w=0.187 //l=0.785 //layer=li \
 //thickness=0.1 //x=19.31 //y=0.17 //x2=19.31 //y2=0.955
r293 (  120 143 ) resistor r=5.4201 //w=0.34 //l=0.17 //layer=li \
 //thickness=0.1 //x=18.3 //y=0 //x2=18.13 //y2=0
r294 (  119 145 ) resistor r=2.94794 //w=0.34 //l=0.085 //layer=li \
 //thickness=0.1 //x=19.225 //y=0 //x2=19.31 //y2=0
r295 (  119 120 ) resistor r=33.1653 //w=0.357 //l=0.925 //layer=li \
 //thickness=0.1 //x=19.225 //y=0 //x2=18.3 //y2=0
r296 (  114 116 ) resistor r=39.7983 //w=0.357 //l=1.11 //layer=li \
 //thickness=0.1 //x=16.65 //y=0 //x2=17.76 //y2=0
r297 (  112 142 ) resistor r=2.94794 //w=0.34 //l=0.085 //layer=li \
 //thickness=0.1 //x=16.065 //y=0 //x2=15.98 //y2=0
r298 (  112 114 ) resistor r=20.9748 //w=0.357 //l=0.585 //layer=li \
 //thickness=0.1 //x=16.065 //y=0 //x2=16.65 //y2=0
r299 (  111 143 ) resistor r=5.4201 //w=0.34 //l=0.17 //layer=li \
 //thickness=0.1 //x=17.96 //y=0 //x2=18.13 //y2=0
r300 (  111 116 ) resistor r=7.17087 //w=0.357 //l=0.2 //layer=li \
 //thickness=0.1 //x=17.96 //y=0 //x2=17.76 //y2=0
r301 (  107 142 ) resistor r=4.11603 //w=0.68 //l=0.17 //layer=li \
 //thickness=0.1 //x=15.98 //y=0.17 //x2=15.98 //y2=0
r302 (  107 150 ) resistor r=53.7326 //w=0.187 //l=0.785 //layer=li \
 //thickness=0.1 //x=15.98 //y=0.17 //x2=15.98 //y2=0.955
r303 (  104 141 ) resistor r=5.4201 //w=0.34 //l=0.17 //layer=li \
 //thickness=0.1 //x=14.97 //y=0 //x2=14.8 //y2=0
r304 (  104 106 ) resistor r=20.437 //w=0.357 //l=0.57 //layer=li \
 //thickness=0.1 //x=14.97 //y=0 //x2=15.54 //y2=0
r305 (  103 142 ) resistor r=2.94794 //w=0.34 //l=0.085 //layer=li \
 //thickness=0.1 //x=15.895 //y=0 //x2=15.98 //y2=0
r306 (  103 106 ) resistor r=12.7283 //w=0.357 //l=0.355 //layer=li \
 //thickness=0.1 //x=15.895 //y=0 //x2=15.54 //y2=0
r307 (  98 100 ) resistor r=39.7983 //w=0.357 //l=1.11 //layer=li \
 //thickness=0.1 //x=12.95 //y=0 //x2=14.06 //y2=0
r308 (  96 140 ) resistor r=2.94794 //w=0.34 //l=0.085 //layer=li \
 //thickness=0.1 //x=12.735 //y=0 //x2=12.65 //y2=0
r309 (  96 98 ) resistor r=7.70868 //w=0.357 //l=0.215 //layer=li \
 //thickness=0.1 //x=12.735 //y=0 //x2=12.95 //y2=0
r310 (  95 141 ) resistor r=5.4201 //w=0.34 //l=0.17 //layer=li \
 //thickness=0.1 //x=14.63 //y=0 //x2=14.8 //y2=0
r311 (  95 100 ) resistor r=20.437 //w=0.357 //l=0.57 //layer=li \
 //thickness=0.1 //x=14.63 //y=0 //x2=14.06 //y2=0
r312 (  91 140 ) resistor r=4.11603 //w=0.68 //l=0.17 //layer=li \
 //thickness=0.1 //x=12.65 //y=0.17 //x2=12.65 //y2=0
r313 (  91 149 ) resistor r=53.7326 //w=0.187 //l=0.785 //layer=li \
 //thickness=0.1 //x=12.65 //y=0.17 //x2=12.65 //y2=0.955
r314 (  88 139 ) resistor r=5.4201 //w=0.34 //l=0.17 //layer=li \
 //thickness=0.1 //x=11.64 //y=0 //x2=11.47 //y2=0
r315 (  88 90 ) resistor r=7.17087 //w=0.357 //l=0.2 //layer=li \
 //thickness=0.1 //x=11.64 //y=0 //x2=11.84 //y2=0
r316 (  87 140 ) resistor r=2.94794 //w=0.34 //l=0.085 //layer=li \
 //thickness=0.1 //x=12.565 //y=0 //x2=12.65 //y2=0
r317 (  87 90 ) resistor r=25.9944 //w=0.357 //l=0.725 //layer=li \
 //thickness=0.1 //x=12.565 //y=0 //x2=11.84 //y2=0
r318 (  82 138 ) resistor r=2.94794 //w=0.34 //l=0.085 //layer=li \
 //thickness=0.1 //x=9.405 //y=0 //x2=9.32 //y2=0
r319 (  82 84 ) resistor r=34.2409 //w=0.357 //l=0.955 //layer=li \
 //thickness=0.1 //x=9.405 //y=0 //x2=10.36 //y2=0
r320 (  81 139 ) resistor r=5.4201 //w=0.34 //l=0.17 //layer=li \
 //thickness=0.1 //x=11.3 //y=0 //x2=11.47 //y2=0
r321 (  81 84 ) resistor r=33.7031 //w=0.357 //l=0.94 //layer=li \
 //thickness=0.1 //x=11.3 //y=0 //x2=10.36 //y2=0
r322 (  77 138 ) resistor r=4.11603 //w=0.68 //l=0.17 //layer=li \
 //thickness=0.1 //x=9.32 //y=0.17 //x2=9.32 //y2=0
r323 (  77 148 ) resistor r=53.7326 //w=0.187 //l=0.785 //layer=li \
 //thickness=0.1 //x=9.32 //y=0.17 //x2=9.32 //y2=0.955
r324 (  76 136 ) resistor r=5.4201 //w=0.34 //l=0.17 //layer=li \
 //thickness=0.1 //x=8.31 //y=0 //x2=8.14 //y2=0
r325 (  75 138 ) resistor r=2.94794 //w=0.34 //l=0.085 //layer=li \
 //thickness=0.1 //x=9.235 //y=0 //x2=9.32 //y2=0
r326 (  75 76 ) resistor r=33.1653 //w=0.357 //l=0.925 //layer=li \
 //thickness=0.1 //x=9.235 //y=0 //x2=8.31 //y2=0
r327 (  70 72 ) resistor r=39.7983 //w=0.357 //l=1.11 //layer=li \
 //thickness=0.1 //x=6.66 //y=0 //x2=7.77 //y2=0
r328 (  68 135 ) resistor r=2.94794 //w=0.34 //l=0.085 //layer=li \
 //thickness=0.1 //x=6.075 //y=0 //x2=5.99 //y2=0
r329 (  68 70 ) resistor r=20.9748 //w=0.357 //l=0.585 //layer=li \
 //thickness=0.1 //x=6.075 //y=0 //x2=6.66 //y2=0
r330 (  67 136 ) resistor r=5.4201 //w=0.34 //l=0.17 //layer=li \
 //thickness=0.1 //x=7.97 //y=0 //x2=8.14 //y2=0
r331 (  67 72 ) resistor r=7.17087 //w=0.357 //l=0.2 //layer=li \
 //thickness=0.1 //x=7.97 //y=0 //x2=7.77 //y2=0
r332 (  63 135 ) resistor r=4.11603 //w=0.68 //l=0.17 //layer=li \
 //thickness=0.1 //x=5.99 //y=0.17 //x2=5.99 //y2=0
r333 (  63 147 ) resistor r=53.7326 //w=0.187 //l=0.785 //layer=li \
 //thickness=0.1 //x=5.99 //y=0.17 //x2=5.99 //y2=0.955
r334 (  60 134 ) resistor r=5.4201 //w=0.34 //l=0.17 //layer=li \
 //thickness=0.1 //x=4.98 //y=0 //x2=4.81 //y2=0
r335 (  60 62 ) resistor r=20.437 //w=0.357 //l=0.57 //layer=li \
 //thickness=0.1 //x=4.98 //y=0 //x2=5.55 //y2=0
r336 (  59 135 ) resistor r=2.94794 //w=0.34 //l=0.085 //layer=li \
 //thickness=0.1 //x=5.905 //y=0 //x2=5.99 //y2=0
r337 (  59 62 ) resistor r=12.7283 //w=0.357 //l=0.355 //layer=li \
 //thickness=0.1 //x=5.905 //y=0 //x2=5.55 //y2=0
r338 (  54 56 ) resistor r=39.7983 //w=0.357 //l=1.11 //layer=li \
 //thickness=0.1 //x=2.96 //y=0 //x2=4.07 //y2=0
r339 (  52 54 ) resistor r=39.7983 //w=0.357 //l=1.11 //layer=li \
 //thickness=0.1 //x=1.85 //y=0 //x2=2.96 //y2=0
r340 (  50 133 ) resistor r=2.94794 //w=0.34 //l=0.085 //layer=li \
 //thickness=0.1 //x=1.16 //y=0 //x2=1.075 //y2=0
r341 (  50 52 ) resistor r=24.7395 //w=0.357 //l=0.69 //layer=li \
 //thickness=0.1 //x=1.16 //y=0 //x2=1.85 //y2=0
r342 (  49 134 ) resistor r=5.4201 //w=0.34 //l=0.17 //layer=li \
 //thickness=0.1 //x=4.64 //y=0 //x2=4.81 //y2=0
r343 (  49 56 ) resistor r=20.437 //w=0.357 //l=0.57 //layer=li \
 //thickness=0.1 //x=4.64 //y=0 //x2=4.07 //y2=0
r344 (  45 133 ) resistor r=4.11603 //w=0.68 //l=0.17 //layer=li \
 //thickness=0.1 //x=1.075 //y=0.17 //x2=1.075 //y2=0
r345 (  45 146 ) resistor r=54.4171 //w=0.187 //l=0.795 //layer=li \
 //thickness=0.1 //x=1.075 //y=0.17 //x2=1.075 //y2=0.965
r346 (  41 133 ) resistor r=2.94794 //w=0.34 //l=0.085 //layer=li \
 //thickness=0.1 //x=0.99 //y=0 //x2=1.075 //y2=0
r347 (  41 44 ) resistor r=8.96359 //w=0.357 //l=0.25 //layer=li \
 //thickness=0.1 //x=0.99 //y=0 //x2=0.74 //y2=0
r348 (  37 130 ) resistor r=9.3 //w=0.17 //l=0.17 //layer=mcon //count=1 \
 //x=21.09 //y=0 //x2=21.09 //y2=0
r349 (  35 128 ) resistor r=3.1 //w=0.17 //l=0.51 //layer=mcon //count=3 \
 //x=20.35 //y=0 //x2=20.35 //y2=0
r350 (  35 37 ) resistor r=0.307309 //w=0.301 //l=0.74 //layer=m1 \
 //thickness=0.36 //x=20.35 //y=0 //x2=21.09 //y2=0
r351 (  33 145 ) resistor r=3.1 //w=0.17 //l=0.51 //layer=mcon //count=3 \
 //x=19.24 //y=0 //x2=19.24 //y2=0
r352 (  33 35 ) resistor r=0.460963 //w=0.301 //l=1.11 //layer=m1 \
 //thickness=0.36 //x=19.24 //y=0 //x2=20.35 //y2=0
r353 (  31 116 ) resistor r=3.1 //w=0.17 //l=0.51 //layer=mcon //count=3 \
 //x=17.76 //y=0 //x2=17.76 //y2=0
r354 (  31 33 ) resistor r=0.614618 //w=0.301 //l=1.48 //layer=m1 \
 //thickness=0.36 //x=17.76 //y=0 //x2=19.24 //y2=0
r355 (  29 114 ) resistor r=3.1 //w=0.17 //l=0.51 //layer=mcon //count=3 \
 //x=16.65 //y=0 //x2=16.65 //y2=0
r356 (  29 31 ) resistor r=0.460963 //w=0.301 //l=1.11 //layer=m1 \
 //thickness=0.36 //x=16.65 //y=0 //x2=17.76 //y2=0
r357 (  27 106 ) resistor r=3.1 //w=0.17 //l=0.51 //layer=mcon //count=3 \
 //x=15.54 //y=0 //x2=15.54 //y2=0
r358 (  27 29 ) resistor r=0.460963 //w=0.301 //l=1.11 //layer=m1 \
 //thickness=0.36 //x=15.54 //y=0 //x2=16.65 //y2=0
r359 (  25 100 ) resistor r=3.1 //w=0.17 //l=0.51 //layer=mcon //count=3 \
 //x=14.06 //y=0 //x2=14.06 //y2=0
r360 (  25 27 ) resistor r=0.614618 //w=0.301 //l=1.48 //layer=m1 \
 //thickness=0.36 //x=14.06 //y=0 //x2=15.54 //y2=0
r361 (  23 98 ) resistor r=3.1 //w=0.17 //l=0.51 //layer=mcon //count=3 \
 //x=12.95 //y=0 //x2=12.95 //y2=0
r362 (  23 25 ) resistor r=0.460963 //w=0.301 //l=1.11 //layer=m1 \
 //thickness=0.36 //x=12.95 //y=0 //x2=14.06 //y2=0
r363 (  21 90 ) resistor r=3.1 //w=0.17 //l=0.51 //layer=mcon //count=3 \
 //x=11.84 //y=0 //x2=11.84 //y2=0
r364 (  21 23 ) resistor r=0.460963 //w=0.301 //l=1.11 //layer=m1 \
 //thickness=0.36 //x=11.84 //y=0 //x2=12.95 //y2=0
r365 (  19 84 ) resistor r=3.1 //w=0.17 //l=0.51 //layer=mcon //count=3 \
 //x=10.36 //y=0 //x2=10.36 //y2=0
r366 (  19 21 ) resistor r=0.614618 //w=0.301 //l=1.48 //layer=m1 \
 //thickness=0.36 //x=10.36 //y=0 //x2=11.84 //y2=0
r367 (  17 138 ) resistor r=3.1 //w=0.17 //l=0.51 //layer=mcon //count=3 \
 //x=9.25 //y=0 //x2=9.25 //y2=0
r368 (  17 19 ) resistor r=0.460963 //w=0.301 //l=1.11 //layer=m1 \
 //thickness=0.36 //x=9.25 //y=0 //x2=10.36 //y2=0
r369 (  15 72 ) resistor r=3.1 //w=0.17 //l=0.51 //layer=mcon //count=3 \
 //x=7.77 //y=0 //x2=7.77 //y2=0
r370 (  15 17 ) resistor r=0.614618 //w=0.301 //l=1.48 //layer=m1 \
 //thickness=0.36 //x=7.77 //y=0 //x2=9.25 //y2=0
r371 (  13 70 ) resistor r=3.1 //w=0.17 //l=0.51 //layer=mcon //count=3 \
 //x=6.66 //y=0 //x2=6.66 //y2=0
r372 (  13 15 ) resistor r=0.460963 //w=0.301 //l=1.11 //layer=m1 \
 //thickness=0.36 //x=6.66 //y=0 //x2=7.77 //y2=0
r373 (  11 62 ) resistor r=3.1 //w=0.17 //l=0.51 //layer=mcon //count=3 \
 //x=5.55 //y=0 //x2=5.55 //y2=0
r374 (  11 13 ) resistor r=0.460963 //w=0.301 //l=1.11 //layer=m1 \
 //thickness=0.36 //x=5.55 //y=0 //x2=6.66 //y2=0
r375 (  9 56 ) resistor r=3.1 //w=0.17 //l=0.51 //layer=mcon //count=3 \
 //x=4.07 //y=0 //x2=4.07 //y2=0
r376 (  9 11 ) resistor r=0.614618 //w=0.301 //l=1.48 //layer=m1 \
 //thickness=0.36 //x=4.07 //y=0 //x2=5.55 //y2=0
r377 (  7 54 ) resistor r=3.1 //w=0.17 //l=0.51 //layer=mcon //count=3 \
 //x=2.96 //y=0 //x2=2.96 //y2=0
r378 (  7 9 ) resistor r=0.460963 //w=0.301 //l=1.11 //layer=m1 \
 //thickness=0.36 //x=2.96 //y=0 //x2=4.07 //y2=0
r379 (  5 52 ) resistor r=3.1 //w=0.17 //l=0.51 //layer=mcon //count=3 \
 //x=1.85 //y=0 //x2=1.85 //y2=0
r380 (  5 7 ) resistor r=0.460963 //w=0.301 //l=1.11 //layer=m1 \
 //thickness=0.36 //x=1.85 //y=0 //x2=2.96 //y2=0
r381 (  2 44 ) resistor r=3.1 //w=0.17 //l=0.51 //layer=mcon //count=3 \
 //x=0.74 //y=0 //x2=0.74 //y2=0
r382 (  2 5 ) resistor r=0.460963 //w=0.301 //l=1.11 //layer=m1 \
 //thickness=0.36 //x=0.74 //y=0 //x2=1.85 //y2=0
ends PM_DFFX1_PCELL\%noxref_1

subckt PM_DFFX1_PCELL\%noxref_2 ( 37 44 51 61 69 79 85 93 101 111 117 125 135 \
 145 149 159 169 177 181 189 197 207 213 221 231 244 251 256 260 265 270 274 \
 275 276 277 278 279 280 281 282 283 284 285 286 287 288 289 290 291 292 )
c289 ( 292 0 ) capacitor c=0.0383753f //x=20.535 //y=5.02
c290 ( 291 0 ) capacitor c=0.0240874f //x=19.655 //y=5.02
c291 ( 290 0 ) capacitor c=0.0493657f //x=18.785 //y=5.02
c292 ( 289 0 ) capacitor c=0.0381505f //x=17.205 //y=5.02
c293 ( 288 0 ) capacitor c=0.0240879f //x=16.325 //y=5.02
c294 ( 287 0 ) capacitor c=0.0493657f //x=15.455 //y=5.02
c295 ( 286 0 ) capacitor c=0.038145f //x=13.875 //y=5.02
c296 ( 285 0 ) capacitor c=0.0240074f //x=12.995 //y=5.02
c297 ( 284 0 ) capacitor c=0.0490303f //x=12.125 //y=5.02
c298 ( 283 0 ) capacitor c=0.0380679f //x=10.545 //y=5.02
c299 ( 282 0 ) capacitor c=0.024008f //x=9.665 //y=5.02
c300 ( 281 0 ) capacitor c=0.0490303f //x=8.795 //y=5.02
c301 ( 280 0 ) capacitor c=0.0380679f //x=7.215 //y=5.02
c302 ( 279 0 ) capacitor c=0.024008f //x=6.335 //y=5.02
c303 ( 278 0 ) capacitor c=0.049209f //x=5.465 //y=5.02
c304 ( 277 0 ) capacitor c=0.0452179f //x=3.585 //y=5.02
c305 ( 276 0 ) capacitor c=0.024152f //x=2.705 //y=5.02
c306 ( 275 0 ) capacitor c=0.02424f //x=1.825 //y=5.02
c307 ( 274 0 ) capacitor c=0.0531407f //x=0.955 //y=5.02
c308 ( 273 0 ) capacitor c=0.00591168f //x=20.68 //y=7.4
c309 ( 272 0 ) capacitor c=0.00591168f //x=19.8 //y=7.4
c310 ( 271 0 ) capacitor c=0.00591168f //x=18.92 //y=7.4
c311 ( 270 0 ) capacitor c=0.116788f //x=18.13 //y=7.4
c312 ( 269 0 ) capacitor c=0.00591168f //x=17.35 //y=7.4
c313 ( 268 0 ) capacitor c=0.00591168f //x=16.47 //y=7.4
c314 ( 267 0 ) capacitor c=0.00591168f //x=15.54 //y=7.4
c315 ( 265 0 ) capacitor c=0.116163f //x=14.8 //y=7.4
c316 ( 264 0 ) capacitor c=0.00591168f //x=14.06 //y=7.4
c317 ( 262 0 ) capacitor c=0.00591168f //x=13.14 //y=7.4
c318 ( 261 0 ) capacitor c=0.00591168f //x=12.26 //y=7.4
c319 ( 260 0 ) capacitor c=0.114361f //x=11.47 //y=7.4
c320 ( 259 0 ) capacitor c=0.00591168f //x=10.69 //y=7.4
c321 ( 258 0 ) capacitor c=0.00591168f //x=9.81 //y=7.4
c322 ( 257 0 ) capacitor c=0.00591168f //x=8.93 //y=7.4
c323 ( 256 0 ) capacitor c=0.11449f //x=8.14 //y=7.4
c324 ( 255 0 ) capacitor c=0.00591168f //x=7.36 //y=7.4
c325 ( 254 0 ) capacitor c=0.00591168f //x=6.48 //y=7.4
c326 ( 253 0 ) capacitor c=0.00591168f //x=5.55 //y=7.4
c327 ( 251 0 ) capacitor c=0.13457f //x=4.81 //y=7.4
c328 ( 250 0 ) capacitor c=0.00591168f //x=3.73 //y=7.4
c329 ( 249 0 ) capacitor c=0.00591168f //x=2.85 //y=7.4
c330 ( 248 0 ) capacitor c=0.00591168f //x=1.97 //y=7.4
c331 ( 247 0 ) capacitor c=0.00591168f //x=1.09 //y=7.4
c332 ( 244 0 ) capacitor c=0.237727f //x=21.09 //y=7.4
c333 ( 231 0 ) capacitor c=0.0284327f //x=20.595 //y=7.4
c334 ( 221 0 ) capacitor c=0.0288633f //x=19.715 //y=7.4
c335 ( 213 0 ) capacitor c=0.0240981f //x=18.835 //y=7.4
c336 ( 207 0 ) capacitor c=0.0236224f //x=17.96 //y=7.4
c337 ( 197 0 ) capacitor c=0.0288639f //x=17.265 //y=7.4
c338 ( 189 0 ) capacitor c=0.0288633f //x=16.385 //y=7.4
c339 ( 181 0 ) capacitor c=0.0240981f //x=15.505 //y=7.4
c340 ( 177 0 ) capacitor c=0.0236947f //x=14.63 //y=7.4
c341 ( 169 0 ) capacitor c=0.0288598f //x=13.935 //y=7.4
c342 ( 159 0 ) capacitor c=0.0288369f //x=13.055 //y=7.4
c343 ( 149 0 ) capacitor c=0.0240981f //x=12.175 //y=7.4
c344 ( 145 0 ) capacitor c=0.0236224f //x=11.3 //y=7.4
c345 ( 135 0 ) capacitor c=0.0288359f //x=10.605 //y=7.4
c346 ( 125 0 ) capacitor c=0.0288369f //x=9.725 //y=7.4
c347 ( 117 0 ) capacitor c=0.0240981f //x=8.845 //y=7.4
c348 ( 111 0 ) capacitor c=0.0236224f //x=7.97 //y=7.4
c349 ( 101 0 ) capacitor c=0.0288359f //x=7.275 //y=7.4
c350 ( 93 0 ) capacitor c=0.0288369f //x=6.395 //y=7.4
c351 ( 85 0 ) capacitor c=0.0240981f //x=5.515 //y=7.4
c352 ( 79 0 ) capacitor c=0.0394667f //x=4.64 //y=7.4
c353 ( 69 0 ) capacitor c=0.0288488f //x=3.645 //y=7.4
c354 ( 61 0 ) capacitor c=0.0287505f //x=2.765 //y=7.4
c355 ( 51 0 ) capacitor c=0.028511f //x=1.885 //y=7.4
c356 ( 44 0 ) capacitor c=0.234426f //x=0.74 //y=7.4
c357 ( 41 0 ) capacitor c=0.0452081f //x=1.005 //y=7.4
c358 ( 37 0 ) capacitor c=0.747675f //x=21.09 //y=7.4
r359 (  242 273 ) resistor r=2.94794 //w=0.34 //l=0.085 //layer=li \
 //thickness=0.1 //x=20.765 //y=7.4 //x2=20.68 //y2=7.4
r360 (  242 244 ) resistor r=11.6527 //w=0.357 //l=0.325 //layer=li \
 //thickness=0.1 //x=20.765 //y=7.4 //x2=21.09 //y2=7.4
r361 (  235 273 ) resistor r=4.11603 //w=0.68 //l=0.17 //layer=li \
 //thickness=0.1 //x=20.68 //y=7.23 //x2=20.68 //y2=7.4
r362 (  235 292 ) resistor r=33.1979 //w=0.187 //l=0.485 //layer=li \
 //thickness=0.1 //x=20.68 //y=7.23 //x2=20.68 //y2=6.745
r363 (  232 272 ) resistor r=2.94794 //w=0.34 //l=0.085 //layer=li \
 //thickness=0.1 //x=19.885 //y=7.4 //x2=19.8 //y2=7.4
r364 (  232 234 ) resistor r=16.6723 //w=0.357 //l=0.465 //layer=li \
 //thickness=0.1 //x=19.885 //y=7.4 //x2=20.35 //y2=7.4
r365 (  231 273 ) resistor r=2.94794 //w=0.34 //l=0.085 //layer=li \
 //thickness=0.1 //x=20.595 //y=7.4 //x2=20.68 //y2=7.4
r366 (  231 234 ) resistor r=8.78431 //w=0.357 //l=0.245 //layer=li \
 //thickness=0.1 //x=20.595 //y=7.4 //x2=20.35 //y2=7.4
r367 (  225 272 ) resistor r=4.11603 //w=0.68 //l=0.17 //layer=li \
 //thickness=0.1 //x=19.8 //y=7.23 //x2=19.8 //y2=7.4
r368 (  225 291 ) resistor r=33.1979 //w=0.187 //l=0.485 //layer=li \
 //thickness=0.1 //x=19.8 //y=7.23 //x2=19.8 //y2=6.745
r369 (  222 271 ) resistor r=2.94794 //w=0.34 //l=0.085 //layer=li \
 //thickness=0.1 //x=19.005 //y=7.4 //x2=18.92 //y2=7.4
r370 (  222 224 ) resistor r=8.42577 //w=0.357 //l=0.235 //layer=li \
 //thickness=0.1 //x=19.005 //y=7.4 //x2=19.24 //y2=7.4
r371 (  221 272 ) resistor r=2.94794 //w=0.34 //l=0.085 //layer=li \
 //thickness=0.1 //x=19.715 //y=7.4 //x2=19.8 //y2=7.4
r372 (  221 224 ) resistor r=17.0308 //w=0.357 //l=0.475 //layer=li \
 //thickness=0.1 //x=19.715 //y=7.4 //x2=19.24 //y2=7.4
r373 (  215 271 ) resistor r=4.11603 //w=0.68 //l=0.17 //layer=li \
 //thickness=0.1 //x=18.92 //y=7.23 //x2=18.92 //y2=7.4
r374 (  215 290 ) resistor r=56.4706 //w=0.187 //l=0.825 //layer=li \
 //thickness=0.1 //x=18.92 //y=7.23 //x2=18.92 //y2=6.405
r375 (  214 270 ) resistor r=5.4201 //w=0.34 //l=0.17 //layer=li \
 //thickness=0.1 //x=18.3 //y=7.4 //x2=18.13 //y2=7.4
r376 (  213 271 ) resistor r=2.94794 //w=0.34 //l=0.085 //layer=li \
 //thickness=0.1 //x=18.835 //y=7.4 //x2=18.92 //y2=7.4
r377 (  213 214 ) resistor r=19.1821 //w=0.357 //l=0.535 //layer=li \
 //thickness=0.1 //x=18.835 //y=7.4 //x2=18.3 //y2=7.4
r378 (  208 269 ) resistor r=2.94794 //w=0.34 //l=0.085 //layer=li \
 //thickness=0.1 //x=17.435 //y=7.4 //x2=17.35 //y2=7.4
r379 (  208 210 ) resistor r=11.6527 //w=0.357 //l=0.325 //layer=li \
 //thickness=0.1 //x=17.435 //y=7.4 //x2=17.76 //y2=7.4
r380 (  207 270 ) resistor r=5.4201 //w=0.34 //l=0.17 //layer=li \
 //thickness=0.1 //x=17.96 //y=7.4 //x2=18.13 //y2=7.4
r381 (  207 210 ) resistor r=7.17087 //w=0.357 //l=0.2 //layer=li \
 //thickness=0.1 //x=17.96 //y=7.4 //x2=17.76 //y2=7.4
r382 (  201 269 ) resistor r=4.11603 //w=0.68 //l=0.17 //layer=li \
 //thickness=0.1 //x=17.35 //y=7.23 //x2=17.35 //y2=7.4
r383 (  201 289 ) resistor r=33.1979 //w=0.187 //l=0.485 //layer=li \
 //thickness=0.1 //x=17.35 //y=7.23 //x2=17.35 //y2=6.745
r384 (  198 268 ) resistor r=2.94794 //w=0.34 //l=0.085 //layer=li \
 //thickness=0.1 //x=16.555 //y=7.4 //x2=16.47 //y2=7.4
r385 (  198 200 ) resistor r=3.40616 //w=0.357 //l=0.095 //layer=li \
 //thickness=0.1 //x=16.555 //y=7.4 //x2=16.65 //y2=7.4
r386 (  197 269 ) resistor r=2.94794 //w=0.34 //l=0.085 //layer=li \
 //thickness=0.1 //x=17.265 //y=7.4 //x2=17.35 //y2=7.4
r387 (  197 200 ) resistor r=22.0504 //w=0.357 //l=0.615 //layer=li \
 //thickness=0.1 //x=17.265 //y=7.4 //x2=16.65 //y2=7.4
r388 (  191 268 ) resistor r=4.11603 //w=0.68 //l=0.17 //layer=li \
 //thickness=0.1 //x=16.47 //y=7.23 //x2=16.47 //y2=7.4
r389 (  191 288 ) resistor r=33.1979 //w=0.187 //l=0.485 //layer=li \
 //thickness=0.1 //x=16.47 //y=7.23 //x2=16.47 //y2=6.745
r390 (  190 267 ) resistor r=2.94794 //w=0.34 //l=0.085 //layer=li \
 //thickness=0.1 //x=15.675 //y=7.4 //x2=15.59 //y2=7.4
r391 (  189 268 ) resistor r=2.94794 //w=0.34 //l=0.085 //layer=li \
 //thickness=0.1 //x=16.385 //y=7.4 //x2=16.47 //y2=7.4
r392 (  189 190 ) resistor r=25.4566 //w=0.357 //l=0.71 //layer=li \
 //thickness=0.1 //x=16.385 //y=7.4 //x2=15.675 //y2=7.4
r393 (  183 267 ) resistor r=4.11603 //w=0.68 //l=0.17 //layer=li \
 //thickness=0.1 //x=15.59 //y=7.23 //x2=15.59 //y2=7.4
r394 (  183 287 ) resistor r=56.4706 //w=0.187 //l=0.825 //layer=li \
 //thickness=0.1 //x=15.59 //y=7.23 //x2=15.59 //y2=6.405
r395 (  182 265 ) resistor r=5.4201 //w=0.34 //l=0.17 //layer=li \
 //thickness=0.1 //x=14.97 //y=7.4 //x2=14.8 //y2=7.4
r396 (  181 267 ) resistor r=2.94794 //w=0.34 //l=0.085 //layer=li \
 //thickness=0.1 //x=15.505 //y=7.4 //x2=15.59 //y2=7.4
r397 (  181 182 ) resistor r=19.1821 //w=0.357 //l=0.535 //layer=li \
 //thickness=0.1 //x=15.505 //y=7.4 //x2=14.97 //y2=7.4
r398 (  178 264 ) resistor r=2.94794 //w=0.34 //l=0.085 //layer=li \
 //thickness=0.1 //x=14.105 //y=7.4 //x2=14.02 //y2=7.4
r399 (  177 265 ) resistor r=5.4201 //w=0.34 //l=0.17 //layer=li \
 //thickness=0.1 //x=14.63 //y=7.4 //x2=14.8 //y2=7.4
r400 (  177 178 ) resistor r=18.8235 //w=0.357 //l=0.525 //layer=li \
 //thickness=0.1 //x=14.63 //y=7.4 //x2=14.105 //y2=7.4
r401 (  171 264 ) resistor r=4.11603 //w=0.68 //l=0.17 //layer=li \
 //thickness=0.1 //x=14.02 //y=7.23 //x2=14.02 //y2=7.4
r402 (  171 286 ) resistor r=33.1979 //w=0.187 //l=0.485 //layer=li \
 //thickness=0.1 //x=14.02 //y=7.23 //x2=14.02 //y2=6.745
r403 (  170 262 ) resistor r=2.94794 //w=0.34 //l=0.085 //layer=li \
 //thickness=0.1 //x=13.225 //y=7.4 //x2=13.14 //y2=7.4
r404 (  169 264 ) resistor r=2.94794 //w=0.34 //l=0.085 //layer=li \
 //thickness=0.1 //x=13.935 //y=7.4 //x2=14.02 //y2=7.4
r405 (  169 170 ) resistor r=25.4566 //w=0.357 //l=0.71 //layer=li \
 //thickness=0.1 //x=13.935 //y=7.4 //x2=13.225 //y2=7.4
r406 (  163 262 ) resistor r=4.11603 //w=0.68 //l=0.17 //layer=li \
 //thickness=0.1 //x=13.14 //y=7.23 //x2=13.14 //y2=7.4
r407 (  163 285 ) resistor r=33.1979 //w=0.187 //l=0.485 //layer=li \
 //thickness=0.1 //x=13.14 //y=7.23 //x2=13.14 //y2=6.745
r408 (  160 261 ) resistor r=2.94794 //w=0.34 //l=0.085 //layer=li \
 //thickness=0.1 //x=12.345 //y=7.4 //x2=12.26 //y2=7.4
r409 (  160 162 ) resistor r=21.6919 //w=0.357 //l=0.605 //layer=li \
 //thickness=0.1 //x=12.345 //y=7.4 //x2=12.95 //y2=7.4
r410 (  159 262 ) resistor r=2.94794 //w=0.34 //l=0.085 //layer=li \
 //thickness=0.1 //x=13.055 //y=7.4 //x2=13.14 //y2=7.4
r411 (  159 162 ) resistor r=3.76471 //w=0.357 //l=0.105 //layer=li \
 //thickness=0.1 //x=13.055 //y=7.4 //x2=12.95 //y2=7.4
r412 (  153 261 ) resistor r=4.11603 //w=0.68 //l=0.17 //layer=li \
 //thickness=0.1 //x=12.26 //y=7.23 //x2=12.26 //y2=7.4
r413 (  153 284 ) resistor r=56.4706 //w=0.187 //l=0.825 //layer=li \
 //thickness=0.1 //x=12.26 //y=7.23 //x2=12.26 //y2=6.405
r414 (  150 260 ) resistor r=5.4201 //w=0.34 //l=0.17 //layer=li \
 //thickness=0.1 //x=11.64 //y=7.4 //x2=11.47 //y2=7.4
r415 (  150 152 ) resistor r=7.17087 //w=0.357 //l=0.2 //layer=li \
 //thickness=0.1 //x=11.64 //y=7.4 //x2=11.84 //y2=7.4
r416 (  149 261 ) resistor r=2.94794 //w=0.34 //l=0.085 //layer=li \
 //thickness=0.1 //x=12.175 //y=7.4 //x2=12.26 //y2=7.4
r417 (  149 152 ) resistor r=12.0112 //w=0.357 //l=0.335 //layer=li \
 //thickness=0.1 //x=12.175 //y=7.4 //x2=11.84 //y2=7.4
r418 (  146 259 ) resistor r=2.94794 //w=0.34 //l=0.085 //layer=li \
 //thickness=0.1 //x=10.775 //y=7.4 //x2=10.69 //y2=7.4
r419 (  145 260 ) resistor r=5.4201 //w=0.34 //l=0.17 //layer=li \
 //thickness=0.1 //x=11.3 //y=7.4 //x2=11.47 //y2=7.4
r420 (  145 146 ) resistor r=18.8235 //w=0.357 //l=0.525 //layer=li \
 //thickness=0.1 //x=11.3 //y=7.4 //x2=10.775 //y2=7.4
r421 (  139 259 ) resistor r=4.11603 //w=0.68 //l=0.17 //layer=li \
 //thickness=0.1 //x=10.69 //y=7.23 //x2=10.69 //y2=7.4
r422 (  139 283 ) resistor r=33.1979 //w=0.187 //l=0.485 //layer=li \
 //thickness=0.1 //x=10.69 //y=7.23 //x2=10.69 //y2=6.745
r423 (  136 258 ) resistor r=2.94794 //w=0.34 //l=0.085 //layer=li \
 //thickness=0.1 //x=9.895 //y=7.4 //x2=9.81 //y2=7.4
r424 (  136 138 ) resistor r=16.6723 //w=0.357 //l=0.465 //layer=li \
 //thickness=0.1 //x=9.895 //y=7.4 //x2=10.36 //y2=7.4
r425 (  135 259 ) resistor r=2.94794 //w=0.34 //l=0.085 //layer=li \
 //thickness=0.1 //x=10.605 //y=7.4 //x2=10.69 //y2=7.4
r426 (  135 138 ) resistor r=8.78431 //w=0.357 //l=0.245 //layer=li \
 //thickness=0.1 //x=10.605 //y=7.4 //x2=10.36 //y2=7.4
r427 (  129 258 ) resistor r=4.11603 //w=0.68 //l=0.17 //layer=li \
 //thickness=0.1 //x=9.81 //y=7.23 //x2=9.81 //y2=7.4
r428 (  129 282 ) resistor r=33.1979 //w=0.187 //l=0.485 //layer=li \
 //thickness=0.1 //x=9.81 //y=7.23 //x2=9.81 //y2=6.745
r429 (  126 257 ) resistor r=2.94794 //w=0.34 //l=0.085 //layer=li \
 //thickness=0.1 //x=9.015 //y=7.4 //x2=8.93 //y2=7.4
r430 (  126 128 ) resistor r=8.42577 //w=0.357 //l=0.235 //layer=li \
 //thickness=0.1 //x=9.015 //y=7.4 //x2=9.25 //y2=7.4
r431 (  125 258 ) resistor r=2.94794 //w=0.34 //l=0.085 //layer=li \
 //thickness=0.1 //x=9.725 //y=7.4 //x2=9.81 //y2=7.4
r432 (  125 128 ) resistor r=17.0308 //w=0.357 //l=0.475 //layer=li \
 //thickness=0.1 //x=9.725 //y=7.4 //x2=9.25 //y2=7.4
r433 (  119 257 ) resistor r=4.11603 //w=0.68 //l=0.17 //layer=li \
 //thickness=0.1 //x=8.93 //y=7.23 //x2=8.93 //y2=7.4
r434 (  119 281 ) resistor r=56.4706 //w=0.187 //l=0.825 //layer=li \
 //thickness=0.1 //x=8.93 //y=7.23 //x2=8.93 //y2=6.405
r435 (  118 256 ) resistor r=5.4201 //w=0.34 //l=0.17 //layer=li \
 //thickness=0.1 //x=8.31 //y=7.4 //x2=8.14 //y2=7.4
r436 (  117 257 ) resistor r=2.94794 //w=0.34 //l=0.085 //layer=li \
 //thickness=0.1 //x=8.845 //y=7.4 //x2=8.93 //y2=7.4
r437 (  117 118 ) resistor r=19.1821 //w=0.357 //l=0.535 //layer=li \
 //thickness=0.1 //x=8.845 //y=7.4 //x2=8.31 //y2=7.4
r438 (  112 255 ) resistor r=2.94794 //w=0.34 //l=0.085 //layer=li \
 //thickness=0.1 //x=7.445 //y=7.4 //x2=7.36 //y2=7.4
r439 (  112 114 ) resistor r=11.6527 //w=0.357 //l=0.325 //layer=li \
 //thickness=0.1 //x=7.445 //y=7.4 //x2=7.77 //y2=7.4
r440 (  111 256 ) resistor r=5.4201 //w=0.34 //l=0.17 //layer=li \
 //thickness=0.1 //x=7.97 //y=7.4 //x2=8.14 //y2=7.4
r441 (  111 114 ) resistor r=7.17087 //w=0.357 //l=0.2 //layer=li \
 //thickness=0.1 //x=7.97 //y=7.4 //x2=7.77 //y2=7.4
r442 (  105 255 ) resistor r=4.11603 //w=0.68 //l=0.17 //layer=li \
 //thickness=0.1 //x=7.36 //y=7.23 //x2=7.36 //y2=7.4
r443 (  105 280 ) resistor r=33.1979 //w=0.187 //l=0.485 //layer=li \
 //thickness=0.1 //x=7.36 //y=7.23 //x2=7.36 //y2=6.745
r444 (  102 254 ) resistor r=2.94794 //w=0.34 //l=0.085 //layer=li \
 //thickness=0.1 //x=6.565 //y=7.4 //x2=6.48 //y2=7.4
r445 (  102 104 ) resistor r=3.40616 //w=0.357 //l=0.095 //layer=li \
 //thickness=0.1 //x=6.565 //y=7.4 //x2=6.66 //y2=7.4
r446 (  101 255 ) resistor r=2.94794 //w=0.34 //l=0.085 //layer=li \
 //thickness=0.1 //x=7.275 //y=7.4 //x2=7.36 //y2=7.4
r447 (  101 104 ) resistor r=22.0504 //w=0.357 //l=0.615 //layer=li \
 //thickness=0.1 //x=7.275 //y=7.4 //x2=6.66 //y2=7.4
r448 (  95 254 ) resistor r=4.11603 //w=0.68 //l=0.17 //layer=li \
 //thickness=0.1 //x=6.48 //y=7.23 //x2=6.48 //y2=7.4
r449 (  95 279 ) resistor r=33.1979 //w=0.187 //l=0.485 //layer=li \
 //thickness=0.1 //x=6.48 //y=7.23 //x2=6.48 //y2=6.745
r450 (  94 253 ) resistor r=2.94794 //w=0.34 //l=0.085 //layer=li \
 //thickness=0.1 //x=5.685 //y=7.4 //x2=5.6 //y2=7.4
r451 (  93 254 ) resistor r=2.94794 //w=0.34 //l=0.085 //layer=li \
 //thickness=0.1 //x=6.395 //y=7.4 //x2=6.48 //y2=7.4
r452 (  93 94 ) resistor r=25.4566 //w=0.357 //l=0.71 //layer=li \
 //thickness=0.1 //x=6.395 //y=7.4 //x2=5.685 //y2=7.4
r453 (  87 253 ) resistor r=4.11603 //w=0.68 //l=0.17 //layer=li \
 //thickness=0.1 //x=5.6 //y=7.23 //x2=5.6 //y2=7.4
r454 (  87 278 ) resistor r=56.4706 //w=0.187 //l=0.825 //layer=li \
 //thickness=0.1 //x=5.6 //y=7.23 //x2=5.6 //y2=6.405
r455 (  86 251 ) resistor r=5.4201 //w=0.34 //l=0.17 //layer=li \
 //thickness=0.1 //x=4.98 //y=7.4 //x2=4.81 //y2=7.4
r456 (  85 253 ) resistor r=2.94794 //w=0.34 //l=0.085 //layer=li \
 //thickness=0.1 //x=5.515 //y=7.4 //x2=5.6 //y2=7.4
r457 (  85 86 ) resistor r=19.1821 //w=0.357 //l=0.535 //layer=li \
 //thickness=0.1 //x=5.515 //y=7.4 //x2=4.98 //y2=7.4
r458 (  80 250 ) resistor r=2.94794 //w=0.34 //l=0.085 //layer=li \
 //thickness=0.1 //x=3.815 //y=7.4 //x2=3.73 //y2=7.4
r459 (  80 82 ) resistor r=9.14286 //w=0.357 //l=0.255 //layer=li \
 //thickness=0.1 //x=3.815 //y=7.4 //x2=4.07 //y2=7.4
r460 (  79 251 ) resistor r=5.4201 //w=0.34 //l=0.17 //layer=li \
 //thickness=0.1 //x=4.64 //y=7.4 //x2=4.81 //y2=7.4