// File: DFFX1.spi.pex
// Created: Tue Oct 15 15:48:13 2024
// Program "Calibre xRC"
// Version "v2023.2_27.15"
// Nominal Temperature: 30C
// Circuit Temperature: 30C
// 
simulator lang=spectre
subckt PM_DFFX1\%GND ( 1 39 43 46 51 61 69 77 83 89 97 105 113 121 132 136 138 \
 141 143 145 148 149 150 151 152 153 )
c263 ( 153 0 ) capacitor c=0.0208017f //x=19.12 //y=0.865
c264 ( 152 0 ) capacitor c=0.0208124f //x=15.79 //y=0.865
c265 ( 151 0 ) capacitor c=0.0208017f //x=12.46 //y=0.865
c266 ( 150 0 ) capacitor c=0.0208017f //x=9.13 //y=0.865
c267 ( 149 0 ) capacitor c=0.0208019f //x=5.8 //y=0.865
c268 ( 148 0 ) capacitor c=0.022675f //x=0.885 //y=0.875
c269 ( 147 0 ) capacitor c=0.00440095f //x=19.24 //y=0
c270 ( 145 0 ) capacitor c=0.107063f //x=18.13 //y=0
c271 ( 144 0 ) capacitor c=0.00440095f //x=15.98 //y=0
c272 ( 143 0 ) capacitor c=0.107594f //x=14.8 //y=0
c273 ( 142 0 ) capacitor c=0.00440095f //x=12.65 //y=0
c274 ( 141 0 ) capacitor c=0.107063f //x=11.47 //y=0
c275 ( 140 0 ) capacitor c=0.00440095f //x=9.25 //y=0
c276 ( 138 0 ) capacitor c=0.107063f //x=8.14 //y=0
c277 ( 137 0 ) capacitor c=0.00440095f //x=5.99 //y=0
c278 ( 136 0 ) capacitor c=0.109996f //x=4.81 //y=0
c279 ( 135 0 ) capacitor c=0.00440144f //x=1.075 //y=0
c280 ( 132 0 ) capacitor c=0.25934f //x=21.09 //y=0
c281 ( 121 0 ) capacitor c=0.0389288f //x=19.225 //y=0
c282 ( 113 0 ) capacitor c=0.0720403f //x=17.96 //y=0
c283 ( 105 0 ) capacitor c=0.0426751f //x=15.895 //y=0
c284 ( 97 0 ) capacitor c=0.0751168f //x=14.63 //y=0
c285 ( 89 0 ) capacitor c=0.0389288f //x=12.565 //y=0
c286 ( 83 0 ) capacitor c=0.0720403f //x=11.3 //y=0
c287 ( 77 0 ) capacitor c=0.0389288f //x=9.235 //y=0
c288 ( 69 0 ) capacitor c=0.0720423f //x=7.97 //y=0
c289 ( 61 0 ) capacitor c=0.0389288f //x=5.905 //y=0
c290 ( 51 0 ) capacitor c=0.131745f //x=4.64 //y=0
c291 ( 46 0 ) capacitor c=0.178285f //x=0.74 //y=0
c292 ( 43 0 ) capacitor c=0.0367385f //x=0.99 //y=0
c293 ( 39 0 ) capacitor c=0.711045f //x=21.09 //y=0
r294 (  130 132 ) resistor r=26.5322 //w=0.357 //l=0.74 //layer=li \
 //thickness=0.1 //x=20.35 //y=0 //x2=21.09 //y2=0
r295 (  128 147 ) resistor r=2.94794 //w=0.34 //l=0.085 //layer=li \
 //thickness=0.1 //x=19.395 //y=0 //x2=19.31 //y2=0
r296 (  128 130 ) resistor r=34.2409 //w=0.357 //l=0.955 //layer=li \
 //thickness=0.1 //x=19.395 //y=0 //x2=20.35 //y2=0
r297 (  123 147 ) resistor r=4.11603 //w=0.68 //l=0.17 //layer=li \
 //thickness=0.1 //x=19.31 //y=0.17 //x2=19.31 //y2=0
r298 (  123 153 ) resistor r=53.7326 //w=0.187 //l=0.785 //layer=li \
 //thickness=0.1 //x=19.31 //y=0.17 //x2=19.31 //y2=0.955
r299 (  122 145 ) resistor r=5.4201 //w=0.34 //l=0.17 //layer=li \
 //thickness=0.1 //x=18.3 //y=0 //x2=18.13 //y2=0
r300 (  121 147 ) resistor r=2.94794 //w=0.34 //l=0.085 //layer=li \
 //thickness=0.1 //x=19.225 //y=0 //x2=19.31 //y2=0
r301 (  121 122 ) resistor r=33.1653 //w=0.357 //l=0.925 //layer=li \
 //thickness=0.1 //x=19.225 //y=0 //x2=18.3 //y2=0
r302 (  116 118 ) resistor r=39.7983 //w=0.357 //l=1.11 //layer=li \
 //thickness=0.1 //x=16.65 //y=0 //x2=17.76 //y2=0
r303 (  114 144 ) resistor r=2.94794 //w=0.34 //l=0.085 //layer=li \
 //thickness=0.1 //x=16.065 //y=0 //x2=15.98 //y2=0
r304 (  114 116 ) resistor r=20.9748 //w=0.357 //l=0.585 //layer=li \
 //thickness=0.1 //x=16.065 //y=0 //x2=16.65 //y2=0
r305 (  113 145 ) resistor r=5.4201 //w=0.34 //l=0.17 //layer=li \
 //thickness=0.1 //x=17.96 //y=0 //x2=18.13 //y2=0
r306 (  113 118 ) resistor r=7.17087 //w=0.357 //l=0.2 //layer=li \
 //thickness=0.1 //x=17.96 //y=0 //x2=17.76 //y2=0
r307 (  109 144 ) resistor r=4.11603 //w=0.68 //l=0.17 //layer=li \
 //thickness=0.1 //x=15.98 //y=0.17 //x2=15.98 //y2=0
r308 (  109 152 ) resistor r=53.7326 //w=0.187 //l=0.785 //layer=li \
 //thickness=0.1 //x=15.98 //y=0.17 //x2=15.98 //y2=0.955
r309 (  106 143 ) resistor r=5.4201 //w=0.34 //l=0.17 //layer=li \
 //thickness=0.1 //x=14.97 //y=0 //x2=14.8 //y2=0
r310 (  106 108 ) resistor r=20.437 //w=0.357 //l=0.57 //layer=li \
 //thickness=0.1 //x=14.97 //y=0 //x2=15.54 //y2=0
r311 (  105 144 ) resistor r=2.94794 //w=0.34 //l=0.085 //layer=li \
 //thickness=0.1 //x=15.895 //y=0 //x2=15.98 //y2=0
r312 (  105 108 ) resistor r=12.7283 //w=0.357 //l=0.355 //layer=li \
 //thickness=0.1 //x=15.895 //y=0 //x2=15.54 //y2=0
r313 (  100 102 ) resistor r=39.7983 //w=0.357 //l=1.11 //layer=li \
 //thickness=0.1 //x=12.95 //y=0 //x2=14.06 //y2=0
r314 (  98 142 ) resistor r=2.94794 //w=0.34 //l=0.085 //layer=li \
 //thickness=0.1 //x=12.735 //y=0 //x2=12.65 //y2=0
r315 (  98 100 ) resistor r=7.70868 //w=0.357 //l=0.215 //layer=li \
 //thickness=0.1 //x=12.735 //y=0 //x2=12.95 //y2=0
r316 (  97 143 ) resistor r=5.4201 //w=0.34 //l=0.17 //layer=li \
 //thickness=0.1 //x=14.63 //y=0 //x2=14.8 //y2=0
r317 (  97 102 ) resistor r=20.437 //w=0.357 //l=0.57 //layer=li \
 //thickness=0.1 //x=14.63 //y=0 //x2=14.06 //y2=0
r318 (  93 142 ) resistor r=4.11603 //w=0.68 //l=0.17 //layer=li \
 //thickness=0.1 //x=12.65 //y=0.17 //x2=12.65 //y2=0
r319 (  93 151 ) resistor r=53.7326 //w=0.187 //l=0.785 //layer=li \
 //thickness=0.1 //x=12.65 //y=0.17 //x2=12.65 //y2=0.955
r320 (  90 141 ) resistor r=5.4201 //w=0.34 //l=0.17 //layer=li \
 //thickness=0.1 //x=11.64 //y=0 //x2=11.47 //y2=0
r321 (  90 92 ) resistor r=7.17087 //w=0.357 //l=0.2 //layer=li \
 //thickness=0.1 //x=11.64 //y=0 //x2=11.84 //y2=0
r322 (  89 142 ) resistor r=2.94794 //w=0.34 //l=0.085 //layer=li \
 //thickness=0.1 //x=12.565 //y=0 //x2=12.65 //y2=0
r323 (  89 92 ) resistor r=25.9944 //w=0.357 //l=0.725 //layer=li \
 //thickness=0.1 //x=12.565 //y=0 //x2=11.84 //y2=0
r324 (  84 140 ) resistor r=2.94794 //w=0.34 //l=0.085 //layer=li \
 //thickness=0.1 //x=9.405 //y=0 //x2=9.32 //y2=0
r325 (  84 86 ) resistor r=34.2409 //w=0.357 //l=0.955 //layer=li \
 //thickness=0.1 //x=9.405 //y=0 //x2=10.36 //y2=0
r326 (  83 141 ) resistor r=5.4201 //w=0.34 //l=0.17 //layer=li \
 //thickness=0.1 //x=11.3 //y=0 //x2=11.47 //y2=0
r327 (  83 86 ) resistor r=33.7031 //w=0.357 //l=0.94 //layer=li \
 //thickness=0.1 //x=11.3 //y=0 //x2=10.36 //y2=0
r328 (  79 140 ) resistor r=4.11603 //w=0.68 //l=0.17 //layer=li \
 //thickness=0.1 //x=9.32 //y=0.17 //x2=9.32 //y2=0
r329 (  79 150 ) resistor r=53.7326 //w=0.187 //l=0.785 //layer=li \
 //thickness=0.1 //x=9.32 //y=0.17 //x2=9.32 //y2=0.955
r330 (  78 138 ) resistor r=5.4201 //w=0.34 //l=0.17 //layer=li \
 //thickness=0.1 //x=8.31 //y=0 //x2=8.14 //y2=0
r331 (  77 140 ) resistor r=2.94794 //w=0.34 //l=0.085 //layer=li \
 //thickness=0.1 //x=9.235 //y=0 //x2=9.32 //y2=0
r332 (  77 78 ) resistor r=33.1653 //w=0.357 //l=0.925 //layer=li \
 //thickness=0.1 //x=9.235 //y=0 //x2=8.31 //y2=0
r333 (  72 74 ) resistor r=39.7983 //w=0.357 //l=1.11 //layer=li \
 //thickness=0.1 //x=6.66 //y=0 //x2=7.77 //y2=0
r334 (  70 137 ) resistor r=2.94794 //w=0.34 //l=0.085 //layer=li \
 //thickness=0.1 //x=6.075 //y=0 //x2=5.99 //y2=0
r335 (  70 72 ) resistor r=20.9748 //w=0.357 //l=0.585 //layer=li \
 //thickness=0.1 //x=6.075 //y=0 //x2=6.66 //y2=0
r336 (  69 138 ) resistor r=5.4201 //w=0.34 //l=0.17 //layer=li \
 //thickness=0.1 //x=7.97 //y=0 //x2=8.14 //y2=0
r337 (  69 74 ) resistor r=7.17087 //w=0.357 //l=0.2 //layer=li \
 //thickness=0.1 //x=7.97 //y=0 //x2=7.77 //y2=0
r338 (  65 137 ) resistor r=4.11603 //w=0.68 //l=0.17 //layer=li \
 //thickness=0.1 //x=5.99 //y=0.17 //x2=5.99 //y2=0
r339 (  65 149 ) resistor r=53.7326 //w=0.187 //l=0.785 //layer=li \
 //thickness=0.1 //x=5.99 //y=0.17 //x2=5.99 //y2=0.955
r340 (  62 136 ) resistor r=5.4201 //w=0.34 //l=0.17 //layer=li \
 //thickness=0.1 //x=4.98 //y=0 //x2=4.81 //y2=0
r341 (  62 64 ) resistor r=20.437 //w=0.357 //l=0.57 //layer=li \
 //thickness=0.1 //x=4.98 //y=0 //x2=5.55 //y2=0
r342 (  61 137 ) resistor r=2.94794 //w=0.34 //l=0.085 //layer=li \
 //thickness=0.1 //x=5.905 //y=0 //x2=5.99 //y2=0
r343 (  61 64 ) resistor r=12.7283 //w=0.357 //l=0.355 //layer=li \
 //thickness=0.1 //x=5.905 //y=0 //x2=5.55 //y2=0
r344 (  56 58 ) resistor r=39.7983 //w=0.357 //l=1.11 //layer=li \
 //thickness=0.1 //x=2.96 //y=0 //x2=4.07 //y2=0
r345 (  54 56 ) resistor r=39.7983 //w=0.357 //l=1.11 //layer=li \
 //thickness=0.1 //x=1.85 //y=0 //x2=2.96 //y2=0
r346 (  52 135 ) resistor r=2.94794 //w=0.34 //l=0.085 //layer=li \
 //thickness=0.1 //x=1.16 //y=0 //x2=1.075 //y2=0
r347 (  52 54 ) resistor r=24.7395 //w=0.357 //l=0.69 //layer=li \
 //thickness=0.1 //x=1.16 //y=0 //x2=1.85 //y2=0
r348 (  51 136 ) resistor r=5.4201 //w=0.34 //l=0.17 //layer=li \
 //thickness=0.1 //x=4.64 //y=0 //x2=4.81 //y2=0
r349 (  51 58 ) resistor r=20.437 //w=0.357 //l=0.57 //layer=li \
 //thickness=0.1 //x=4.64 //y=0 //x2=4.07 //y2=0
r350 (  47 135 ) resistor r=4.11603 //w=0.68 //l=0.17 //layer=li \
 //thickness=0.1 //x=1.075 //y=0.17 //x2=1.075 //y2=0
r351 (  47 148 ) resistor r=54.4171 //w=0.187 //l=0.795 //layer=li \
 //thickness=0.1 //x=1.075 //y=0.17 //x2=1.075 //y2=0.965
r352 (  43 135 ) resistor r=2.94794 //w=0.34 //l=0.085 //layer=li \
 //thickness=0.1 //x=0.99 //y=0 //x2=1.075 //y2=0
r353 (  43 46 ) resistor r=8.96359 //w=0.357 //l=0.25 //layer=li \
 //thickness=0.1 //x=0.99 //y=0 //x2=0.74 //y2=0
r354 (  39 132 ) resistor r=9.3 //w=0.17 //l=0.17 //layer=mcon //count=1 \
 //x=21.09 //y=0 //x2=21.09 //y2=0
r355 (  37 130 ) resistor r=3.1 //w=0.17 //l=0.51 //layer=mcon //count=3 \
 //x=20.35 //y=0 //x2=20.35 //y2=0
r356 (  37 39 ) resistor r=0.307309 //w=0.301 //l=0.74 //layer=m1 \
 //thickness=0.36 //x=20.35 //y=0 //x2=21.09 //y2=0
r357 (  35 147 ) resistor r=3.1 //w=0.17 //l=0.51 //layer=mcon //count=3 \
 //x=19.24 //y=0 //x2=19.24 //y2=0
r358 (  35 37 ) resistor r=0.460963 //w=0.301 //l=1.11 //layer=m1 \
 //thickness=0.36 //x=19.24 //y=0 //x2=20.35 //y2=0
r359 (  33 118 ) resistor r=3.1 //w=0.17 //l=0.51 //layer=mcon //count=3 \
 //x=17.76 //y=0 //x2=17.76 //y2=0
r360 (  33 35 ) resistor r=0.614618 //w=0.301 //l=1.48 //layer=m1 \
 //thickness=0.36 //x=17.76 //y=0 //x2=19.24 //y2=0
r361 (  31 116 ) resistor r=3.1 //w=0.17 //l=0.51 //layer=mcon //count=3 \
 //x=16.65 //y=0 //x2=16.65 //y2=0
r362 (  31 33 ) resistor r=0.460963 //w=0.301 //l=1.11 //layer=m1 \
 //thickness=0.36 //x=16.65 //y=0 //x2=17.76 //y2=0
r363 (  29 108 ) resistor r=3.1 //w=0.17 //l=0.51 //layer=mcon //count=3 \
 //x=15.54 //y=0 //x2=15.54 //y2=0
r364 (  29 31 ) resistor r=0.460963 //w=0.301 //l=1.11 //layer=m1 \
 //thickness=0.36 //x=15.54 //y=0 //x2=16.65 //y2=0
r365 (  27 102 ) resistor r=3.1 //w=0.17 //l=0.51 //layer=mcon //count=3 \
 //x=14.06 //y=0 //x2=14.06 //y2=0
r366 (  27 29 ) resistor r=0.614618 //w=0.301 //l=1.48 //layer=m1 \
 //thickness=0.36 //x=14.06 //y=0 //x2=15.54 //y2=0
r367 (  25 100 ) resistor r=3.1 //w=0.17 //l=0.51 //layer=mcon //count=3 \
 //x=12.95 //y=0 //x2=12.95 //y2=0
r368 (  25 27 ) resistor r=0.460963 //w=0.301 //l=1.11 //layer=m1 \
 //thickness=0.36 //x=12.95 //y=0 //x2=14.06 //y2=0
r369 (  23 92 ) resistor r=3.1 //w=0.17 //l=0.51 //layer=mcon //count=3 \
 //x=11.84 //y=0 //x2=11.84 //y2=0
r370 (  23 25 ) resistor r=0.460963 //w=0.301 //l=1.11 //layer=m1 \
 //thickness=0.36 //x=11.84 //y=0 //x2=12.95 //y2=0
r371 (  20 86 ) resistor r=3.1 //w=0.17 //l=0.51 //layer=mcon //count=3 \
 //x=10.36 //y=0 //x2=10.36 //y2=0
r372 (  18 140 ) resistor r=3.1 //w=0.17 //l=0.51 //layer=mcon //count=3 \
 //x=9.25 //y=0 //x2=9.25 //y2=0
r373 (  18 20 ) resistor r=0.460963 //w=0.301 //l=1.11 //layer=m1 \
 //thickness=0.36 //x=9.25 //y=0 //x2=10.36 //y2=0
r374 (  16 74 ) resistor r=3.1 //w=0.17 //l=0.51 //layer=mcon //count=3 \
 //x=7.77 //y=0 //x2=7.77 //y2=0
r375 (  16 18 ) resistor r=0.614618 //w=0.301 //l=1.48 //layer=m1 \
 //thickness=0.36 //x=7.77 //y=0 //x2=9.25 //y2=0
r376 (  14 72 ) resistor r=3.1 //w=0.17 //l=0.51 //layer=mcon //count=3 \
 //x=6.66 //y=0 //x2=6.66 //y2=0
r377 (  14 16 ) resistor r=0.460963 //w=0.301 //l=1.11 //layer=m1 \
 //thickness=0.36 //x=6.66 //y=0 //x2=7.77 //y2=0
r378 (  12 64 ) resistor r=3.1 //w=0.17 //l=0.51 //layer=mcon //count=3 \
 //x=5.55 //y=0 //x2=5.55 //y2=0
r379 (  12 14 ) resistor r=0.460963 //w=0.301 //l=1.11 //layer=m1 \
 //thickness=0.36 //x=5.55 //y=0 //x2=6.66 //y2=0
r380 (  10 58 ) resistor r=3.1 //w=0.17 //l=0.51 //layer=mcon //count=3 \
 //x=4.07 //y=0 //x2=4.07 //y2=0
r381 (  10 12 ) resistor r=0.614618 //w=0.301 //l=1.48 //layer=m1 \
 //thickness=0.36 //x=4.07 //y=0 //x2=5.55 //y2=0
r382 (  8 56 ) resistor r=3.1 //w=0.17 //l=0.51 //layer=mcon //count=3 \
 //x=2.96 //y=0 //x2=2.96 //y2=0
r383 (  8 10 ) resistor r=0.460963 //w=0.301 //l=1.11 //layer=m1 \
 //thickness=0.36 //x=2.96 //y=0 //x2=4.07 //y2=0
r384 (  6 54 ) resistor r=3.1 //w=0.17 //l=0.51 //layer=mcon //count=3 \
 //x=1.85 //y=0 //x2=1.85 //y2=0
r385 (  6 8 ) resistor r=0.460963 //w=0.301 //l=1.11 //layer=m1 \
 //thickness=0.36 //x=1.85 //y=0 //x2=2.96 //y2=0
r386 (  3 46 ) resistor r=3.1 //w=0.17 //l=0.51 //layer=mcon //count=3 \
 //x=0.74 //y=0 //x2=0.74 //y2=0
r387 (  3 6 ) resistor r=0.460963 //w=0.301 //l=1.11 //layer=m1 \
 //thickness=0.36 //x=0.74 //y=0 //x2=1.85 //y2=0
r388 (  1 23 ) resistor r=0.460963 //w=0.301 //l=1.11 //layer=m1 \
 //thickness=0.36 //x=10.73 //y=0 //x2=11.84 //y2=0
r389 (  1 20 ) resistor r=0.153654 //w=0.301 //l=0.37 //layer=m1 \
 //thickness=0.36 //x=10.73 //y=0 //x2=10.36 //y2=0
ends PM_DFFX1\%GND

subckt PM_DFFX1\%VDD ( 1 52 59 66 76 86 96 102 112 122 132 136 146 156 166 170 \
 180 190 200 204 214 224 234 238 248 258 276 281 286 291 296 300 301 302 303 \
 304 305 306 307 308 309 310 311 312 313 314 315 316 317 318 319 )
c291 ( 319 0 ) capacitor c=0.038101f //x=20.535 //y=5.02
c292 ( 318 0 ) capacitor c=0.0239699f //x=19.655 //y=5.02
c293 ( 317 0 ) capacitor c=0.0492585f //x=18.785 //y=5.02
c294 ( 316 0 ) capacitor c=0.0380439f //x=17.205 //y=5.02
c295 ( 315 0 ) capacitor c=0.0239704f //x=16.325 //y=5.02
c296 ( 314 0 ) capacitor c=0.0492585f //x=15.455 //y=5.02
c297 ( 313 0 ) capacitor c=0.0380384f //x=13.875 //y=5.02
c298 ( 312 0 ) capacitor c=0.0238899f //x=12.995 //y=5.02
c299 ( 311 0 ) capacitor c=0.048923f //x=12.125 //y=5.02
c300 ( 310 0 ) capacitor c=0.0379613f //x=10.545 //y=5.02
c301 ( 309 0 ) capacitor c=0.0238906f //x=9.665 //y=5.02
c302 ( 308 0 ) capacitor c=0.048923f //x=8.795 //y=5.02
c303 ( 307 0 ) capacitor c=0.0379613f //x=7.215 //y=5.02
c304 ( 306 0 ) capacitor c=0.0238906f //x=6.335 //y=5.02
c305 ( 305 0 ) capacitor c=0.0491017f //x=5.465 //y=5.02
c306 ( 304 0 ) capacitor c=0.0450944f //x=3.585 //y=5.02
c307 ( 303 0 ) capacitor c=0.0240346f //x=2.705 //y=5.02
c308 ( 302 0 ) capacitor c=0.0241226f //x=1.825 //y=5.02
c309 ( 301 0 ) capacitor c=0.0530167f //x=0.955 //y=5.02
c310 ( 300 0 ) capacitor c=0.243962f //x=20.72 //y=7.4
c311 ( 298 0 ) capacitor c=0.00591168f //x=19.8 //y=7.4
c312 ( 297 0 ) capacitor c=0.00617226f //x=18.92 //y=7.4
c313 ( 296 0 ) capacitor c=0.116587f //x=18.13 //y=7.4
c314 ( 295 0 ) capacitor c=0.00591168f //x=17.39 //y=7.4
c315 ( 293 0 ) capacitor c=0.00591168f //x=16.47 //y=7.4
c316 ( 292 0 ) capacitor c=0.00617226f //x=15.59 //y=7.4
c317 ( 291 0 ) capacitor c=0.116067f //x=14.8 //y=7.4
c318 ( 290 0 ) capacitor c=0.00591168f //x=14.06 //y=7.4
c319 ( 288 0 ) capacitor c=0.00591168f //x=13.14 //y=7.4
c320 ( 287 0 ) capacitor c=0.00617226f //x=12.26 //y=7.4
c321 ( 286 0 ) capacitor c=0.114265f //x=11.47 //y=7.4
c322 ( 285 0 ) capacitor c=0.00591168f //x=10.73 //y=7.4
c323 ( 283 0 ) capacitor c=0.00591168f //x=9.81 //y=7.4
c324 ( 282 0 ) capacitor c=0.00617226f //x=8.93 //y=7.4
c325 ( 281 0 ) capacitor c=0.114394f //x=8.14 //y=7.4
c326 ( 280 0 ) capacitor c=0.00591168f //x=7.4 //y=7.4
c327 ( 278 0 ) capacitor c=0.00591168f //x=6.48 //y=7.4
c328 ( 277 0 ) capacitor c=0.00617226f //x=5.6 //y=7.4
c329 ( 276 0 ) capacitor c=0.134457f //x=4.81 //y=7.4
c330 ( 275 0 ) capacitor c=0.00617226f //x=3.73 //y=7.4
c331 ( 274 0 ) capacitor c=0.00591168f //x=2.85 //y=7.4
c332 ( 273 0 ) capacitor c=0.00643014f //x=1.97 //y=7.4
c333 ( 272 0 ) capacitor c=0.00591168f //x=1.09 //y=7.4
c334 ( 258 0 ) capacitor c=0.0286919f //x=20.595 //y=7.4
c335 ( 248 0 ) capacitor c=0.0291225f //x=19.715 //y=7.4
c336 ( 238 0 ) capacitor c=0.0246165f //x=18.835 //y=7.4
c337 ( 234 0 ) capacitor c=0.0244015f //x=17.96 //y=7.4
c338 ( 224 0 ) capacitor c=0.0291231f //x=17.265 //y=7.4
c339 ( 214 0 ) capacitor c=0.0291225f //x=16.385 //y=7.4
c340 ( 204 0 ) capacitor c=0.0246165f //x=15.505 //y=7.4
c341 ( 200 0 ) capacitor c=0.0244737f //x=14.63 //y=7.4
c342 ( 190 0 ) capacitor c=0.029119f //x=13.935 //y=7.4
c343 ( 180 0 ) capacitor c=0.0290962f //x=13.055 //y=7.4
c344 ( 170 0 ) capacitor c=0.0246165f //x=12.175 //y=7.4
c345 ( 166 0 ) capacitor c=0.0244015f //x=11.3 //y=7.4
c346 ( 156 0 ) capacitor c=0.0290951f //x=10.605 //y=7.4
c347 ( 146 0 ) capacitor c=0.0290962f //x=9.725 //y=7.4
c348 ( 136 0 ) capacitor c=0.0246165f //x=8.845 //y=7.4
c349 ( 132 0 ) capacitor c=0.0244015f //x=7.97 //y=7.4
c350 ( 122 0 ) capacitor c=0.0290951f //x=7.275 //y=7.4
c351 ( 112 0 ) capacitor c=0.0290962f //x=6.395 //y=7.4
c352 ( 102 0 ) capacitor c=0.0246165f //x=5.515 //y=7.4
c353 ( 96 0 ) capacitor c=0.0399852f //x=4.64 //y=7.4
c354 ( 86 0 ) capacitor c=0.0296265f //x=3.645 //y=7.4
c355 ( 76 0 ) capacitor c=0.0290098f //x=2.765 //y=7.4
c356 ( 66 0 ) capacitor c=0.0290308f //x=1.885 //y=7.4
c357 ( 59 0 ) capacitor c=0.234214f //x=0.37 //y=7.4
c358 ( 56 0 ) capacitor c=0.045728f //x=1.005 //y=7.4
c359 ( 52 0 ) capacitor c=0.745722f //x=20.72 //y=7.4
r360 (  262 300 ) resistor r=4.11603 //w=0.68 //l=0.17 //layer=li \
 //thickness=0.1 //x=20.68 //y=7.23 //x2=20.68 //y2=7.4
r361 (  262 319 ) resistor r=33.1979 //w=0.187 //l=0.485 //layer=li \
 //thickness=0.1 //x=20.68 //y=7.23 //x2=20.68 //y2=6.745
r362 (  259 298 ) resistor r=2.94794 //w=0.34 //l=0.085 //layer=li \
 //thickness=0.1 //x=19.885 //y=7.4 //x2=19.8 //y2=7.4
r363 (  259 261 ) resistor r=3.40616 //w=0.357 //l=0.095 //layer=li \
 //thickness=0.1 //x=19.885 //y=7.4 //x2=19.98 //y2=7.4
r364 (  258 300 ) resistor r=2.94794 //w=0.34 //l=0.085 //layer=li \
 //thickness=0.1 //x=20.595 //y=7.4 //x2=20.68 //y2=7.4
r365 (  258 261 ) resistor r=22.0504 //w=0.357 //l=0.615 //layer=li \
 //thickness=0.1 //x=20.595 //y=7.4 //x2=19.98 //y2=7.4
r366 (  252 298 ) resistor r=4.11603 //w=0.68 //l=0.17 //layer=li \
 //thickness=0.1 //x=19.8 //y=7.23 //x2=19.8 //y2=7.4
r367 (  252 318 ) resistor r=33.1979 //w=0.187 //l=0.485 //layer=li \
 //thickness=0.1 //x=19.8 //y=7.23 //x2=19.8 //y2=6.745
r368 (  249 297 ) resistor r=2.94794 //w=0.34 //l=0.085 //layer=li \
 //thickness=0.1 //x=19.005 //y=7.4 //x2=18.92 //y2=7.4
r369 (  249 251 ) resistor r=8.42577 //w=0.357 //l=0.235 //layer=li \
 //thickness=0.1 //x=19.005 //y=7.4 //x2=19.24 //y2=7.4
r370 (  248 298 ) resistor r=2.94794 //w=0.34 //l=0.085 //layer=li \
 //thickness=0.1 //x=19.715 //y=7.4 //x2=19.8 //y2=7.4
r371 (  248 251 ) resistor r=17.0308 //w=0.357 //l=0.475 //layer=li \
 //thickness=0.1 //x=19.715 //y=7.4 //x2=19.24 //y2=7.4
r372 (  242 297 ) resistor r=4.11603 //w=0.68 //l=0.17 //layer=li \
 //thickness=0.1 //x=18.92 //y=7.23 //x2=18.92 //y2=7.4
r373 (  242 317 ) resistor r=56.4706 //w=0.187 //l=0.825 //layer=li \
 //thickness=0.1 //x=18.92 //y=7.23 //x2=18.92 //y2=6.405
r374 (  239 296 ) resistor r=5.4201 //w=0.34 //l=0.17 //layer=li \
 //thickness=0.1 //x=18.3 //y=7.4 //x2=18.13 //y2=7.4
r375 (  239 241 ) resistor r=7.17087 //w=0.357 //l=0.2 //layer=li \
 //thickness=0.1 //x=18.3 //y=7.4 //x2=18.5 //y2=7.4
r376 (  238 297 ) resistor r=2.94794 //w=0.34 //l=0.085 //layer=li \
 //thickness=0.1 //x=18.835 //y=7.4 //x2=18.92 //y2=7.4
r377 (  238 241 ) resistor r=12.0112 //w=0.357 //l=0.335 //layer=li \
 //thickness=0.1 //x=18.835 //y=7.4 //x2=18.5 //y2=7.4
r378 (  235 295 ) resistor r=2.94794 //w=0.34 //l=0.085 //layer=li \
 //thickness=0.1 //x=17.435 //y=7.4 //x2=17.35 //y2=7.4
r379 (  234 296 ) resistor r=5.4201 //w=0.34 //l=0.17 //layer=li \
 //thickness=0.1 //x=17.96 //y=7.4 //x2=18.13 //y2=7.4
r380 (  234 235 ) resistor r=18.8235 //w=0.357 //l=0.525 //layer=li \
 //thickness=0.1 //x=17.96 //y=7.4 //x2=17.435 //y2=7.4
r381 (  228 295 ) resistor r=4.11603 //w=0.68 //l=0.17 //layer=li \
 //thickness=0.1 //x=17.35 //y=7.23 //x2=17.35 //y2=7.4
r382 (  228 316 ) resistor r=33.1979 //w=0.187 //l=0.485 //layer=li \
 //thickness=0.1 //x=17.35 //y=7.23 //x2=17.35 //y2=6.745
r383 (  225 293 ) resistor r=2.94794 //w=0.34 //l=0.085 //layer=li \
 //thickness=0.1 //x=16.555 //y=7.4 //x2=16.47 //y2=7.4
r384 (  225 227 ) resistor r=3.40616 //w=0.357 //l=0.095 //layer=li \
 //thickness=0.1 //x=16.555 //y=7.4 //x2=16.65 //y2=7.4
r385 (  224 295 ) resistor r=2.94794 //w=0.34 //l=0.085 //layer=li \
 //thickness=0.1 //x=17.265 //y=7.4 //x2=17.35 //y2=7.4
r386 (  224 227 ) resistor r=22.0504 //w=0.357 //l=0.615 //layer=li \
 //thickness=0.1 //x=17.265 //y=7.4 //x2=16.65 //y2=7.4
r387 (  218 293 ) resistor r=4.11603 //w=0.68 //l=0.17 //layer=li \
 //thickness=0.1 //x=16.47 //y=7.23 //x2=16.47 //y2=7.4
r388 (  218 315 ) resistor r=33.1979 //w=0.187 //l=0.485 //layer=li \
 //thickness=0.1 //x=16.47 //y=7.23 //x2=16.47 //y2=6.745
r389 (  215 292 ) resistor r=2.94794 //w=0.34 //l=0.085 //layer=li \
 //thickness=0.1 //x=15.675 //y=7.4 //x2=15.59 //y2=7.4
r390 (  215 217 ) resistor r=8.42577 //w=0.357 //l=0.235 //layer=li \
 //thickness=0.1 //x=15.675 //y=7.4 //x2=15.91 //y2=7.4
r391 (  214 293 ) resistor r=2.94794 //w=0.34 //l=0.085 //layer=li \
 //thickness=0.1 //x=16.385 //y=7.4 //x2=16.47 //y2=7.4
r392 (  214 217 ) resistor r=17.0308 //w=0.357 //l=0.475 //layer=li \
 //thickness=0.1 //x=16.385 //y=7.4 //x2=15.91 //y2=7.4
r393 (  208 292 ) resistor r=4.11603 //w=0.68 //l=0.17 //layer=li \
 //thickness=0.1 //x=15.59 //y=7.23 //x2=15.59 //y2=7.4
r394 (  208 314 ) resistor r=56.4706 //w=0.187 //l=0.825 //layer=li \
 //thickness=0.1 //x=15.59 //y=7.23 //x2=15.59 //y2=6.405
r395 (  205 291 ) resistor r=5.4201 //w=0.34 //l=0.17 //layer=li \
 //thickness=0.1 //x=14.97 //y=7.4 //x2=14.8 //y2=7.4
r396 (  205 207 ) resistor r=7.17087 //w=0.357 //l=0.2 //layer=li \
 //thickness=0.1 //x=14.97 //y=7.4 //x2=15.17 //y2=7.4
r397 (  204 292 ) resistor r=2.94794 //w=0.34 //l=0.085 //layer=li \
 //thickness=0.1 //x=15.505 //y=7.4 //x2=15.59 //y2=7.4
r398 (  204 207 ) resistor r=12.0112 //w=0.357 //l=0.335 //layer=li \
 //thickness=0.1 //x=15.505 //y=7.4 //x2=15.17 //y2=7.4
r399 (  201 290 ) resistor r=2.94794 //w=0.34 //l=0.085 //layer=li \
 //thickness=0.1 //x=14.105 //y=7.4 //x2=14.02 //y2=7.4
r400 (  200 291 ) resistor r=5.4201 //w=0.34 //l=0.17 //layer=li \
 //thickness=0.1 //x=14.63 //y=7.4 //x2=14.8 //y2=7.4
r401 (  200 201 ) resistor r=18.8235 //w=0.357 //l=0.525 //layer=li \
 //thickness=0.1 //x=14.63 //y=7.4 //x2=14.105 //y2=7.4
r402 (  194 290 ) resistor r=4.11603 //w=0.68 //l=0.17 //layer=li \
 //thickness=0.1 //x=14.02 //y=7.23 //x2=14.02 //y2=7.4
r403 (  194 313 ) resistor r=33.1979 //w=0.187 //l=0.485 //layer=li \
 //thickness=0.1 //x=14.02 //y=7.23 //x2=14.02 //y2=6.745
r404 (  191 288 ) resistor r=2.94794 //w=0.34 //l=0.085 //layer=li \
 //thickness=0.1 //x=13.225 //y=7.4 //x2=13.14 //y2=7.4
r405 (  191 193 ) resistor r=3.40616 //w=0.357 //l=0.095 //layer=li \
 //thickness=0.1 //x=13.225 //y=7.4 //x2=13.32 //y2=7.4
r406 (  190 290 ) resistor r=2.94794 //w=0.34 //l=0.085 //layer=li \
 //thickness=0.1 //x=13.935 //y=7.4 //x2=14.02 //y2=7.4
r407 (  190 193 ) resistor r=22.0504 //w=0.357 //l=0.615 //layer=li \
 //thickness=0.1 //x=13.935 //y=7.4 //x2=13.32 //y2=7.4
r408 (  184 288 ) resistor r=4.11603 //w=0.68 //l=0.17 //layer=li \
 //thickness=0.1 //x=13.14 //y=7.23 //x2=13.14 //y2=7.4
r409 (  184 312 ) resistor r=33.1979 //w=0.187 //l=0.485 //layer=li \
 //thickness=0.1 //x=13.14 //y=7.23 //x2=13.14 //y2=6.745
r410 (  181 287 ) resistor r=2.94794 //w=0.34 //l=0.085 //layer=li \
 //thickness=0.1 //x=12.345 //y=7.4 //x2=12.26 //y2=7.4
r411 (  181 183 ) resistor r=8.42577 //w=0.357 //l=0.235 //layer=li \
 //thickness=0.1 //x=12.345 //y=7.4 //x2=12.58 //y2=7.4
r412 (  180 288 ) resistor r=2.94794 //w=0.34 //l=0.085 //layer=li \
 //thickness=0.1 //x=13.055 //y=7.4 //x2=13.14 //y2=7.4
r413 (  180 183 ) resistor r=17.0308 //w=0.357 //l=0.475 //layer=li \
 //thickness=0.1 //x=13.055 //y=7.4 //x2=12.58 //y2=7.4
r414 (  174 287 ) resistor r=4.11603 //w=0.68 //l=0.17 //layer=li \
 //thickness=0.1 //x=12.26 //y=7.23 //x2=12.26 //y2=7.4
r415 (  174 311 ) resistor r=56.4706 //w=0.187 //l=0.825 //layer=li \
 //thickness=0.1 //x=12.26 //y=7.23 //x2=12.26 //y2=6.405
r416 (  171 286 ) resistor r=5.4201 //w=0.34 //l=0.17 //layer=li \
 //thickness=0.1 //x=11.64 //y=7.4 //x2=11.47 //y2=7.4
r417 (  171 173 ) resistor r=7.17087 //w=0.357 //l=0.2 //layer=li \
 //thickness=0.1 //x=11.64 //y=7.4 //x2=11.84 //y2=7.4
r418 (  170 287 ) resistor r=2.94794 //w=0.34 //l=0.085 //layer=li \
 //thickness=0.1 //x=12.175 //y=7.4 //x2=12.26 //y2=7.4
r419 (  170 173 ) resistor r=12.0112 //w=0.357 //l=0.335 //layer=li \
 //thickness=0.1 //x=12.175 //y=7.4 //x2=11.84 //y2=7.4
r420 (  167 285 ) resistor r=2.94794 //w=0.34 //l=0.085 //layer=li \
 //thickness=0.1 //x=10.775 //y=7.4 //x2=10.69 //y2=7.4
r421 (  166 286 ) resistor r=5.4201 //w=0.34 //l=0.17 //layer=li \
 //thickness=0.1 //x=11.3 //y=7.4 //x2=11.47 //y2=7.4
r422 (  166 167 ) resistor r=18.8235 //w=0.357 //l=0.525 //layer=li \
 //thickness=0.1 //x=11.3 //y=7.4 //x2=10.775 //y2=7.4
r423 (  160 285 ) resistor r=4.11603 //w=0.68 //l=0.17 //layer=li \
 //thickness=0.1 //x=10.69 //y=7.23 //x2=10.69 //y2=7.4
r424 (  160 310 ) resistor r=33.1979 //w=0.187 //l=0.485 //layer=li \
 //thickness=0.1 //x=10.69 //y=7.23 //x2=10.69 //y2=6.745
r425 (  157 283 ) resistor r=2.94794 //w=0.34 //l=0.085 //layer=li \
 //thickness=0.1 //x=9.895 //y=7.4 //x2=9.81 //y2=7.4
r426 (  157 159 ) resistor r=3.40616 //w=0.357 //l=0.095 //layer=li \
 //thickness=0.1 //x=9.895 //y=7.4 //x2=9.99 //y2=7.4
r427 (  156 285 ) resistor r=2.94794 //w=0.34 //l=0.085 //layer=li \
 //thickness=0.1 //x=10.605 //y=7.4 //x2=10.69 //y2=7.4
r428 (  156 159 ) resistor r=22.0504 //w=0.357 //l=0.615 //layer=li \
 //thickness=0.1 //x=10.605 //y=7.4 //x2=9.99 //y2=7.4
r429 (  150 283 ) resistor r=4.11603 //w=0.68 //l=0.17 //layer=li \
 //thickness=0.1 //x=9.81 //y=7.23 //x2=9.81 //y2=7.4
r430 (  150 309 ) resistor r=33.1979 //w=0.187 //l=0.485 //layer=li \
 //thickness=0.1 //x=9.81 //y=7.23 //x2=9.81 //y2=6.745
r431 (  147 282 ) resistor r=2.94794 //w=0.34 //l=0.085 //layer=li \
 //thickness=0.1 //x=9.015 //y=7.4 //x2=8.93 //y2=7.4
r432 (  147 149 ) resistor r=8.42577 //w=0.357 //l=0.235 //layer=li \
 //thickness=0.1 //x=9.015 //y=7.4 //x2=9.25 //y2=7.4
r433 (  146 283 ) resistor r=2.94794 //w=0.34 //l=0.085 //layer=li \
 //thickness=0.1 //x=9.725 //y=7.4 //x2=9.81 //y2=7.4
r434 (  146 149 ) resistor r=17.0308 //w=0.357 //l=0.475 //layer=li \
 //thickness=0.1 //x=9.725 //y=7.4 //x2=9.25 //y2=7.4
r435 (  140 282 ) resistor r=4.11603 //w=0.68 //l=0.17 //layer=li \
 //thickness=0.1 //x=8.93 //y=7.23 //x2=8.93 //y2=7.4
r436 (  140 308 ) resistor r=56.4706 //w=0.187 //l=0.825 //layer=li \
 //thickness=0.1 //x=8.93 //y=7.23 //x2=8.93 //y2=6.405
r437 (  137 281 ) resistor r=5.4201 //w=0.34 //l=0.17 //layer=li \
 //thickness=0.1 //x=8.31 //y=7.4 //x2=8.14 //y2=7.4
r438 (  137 139 ) resistor r=7.17087 //w=0.357 //l=0.2 //layer=li \
 //thickness=0.1 //x=8.31 //y=7.4 //x2=8.51 //y2=7.4
r439 (  136 282 ) resistor r=2.94794 //w=0.34 //l=0.085 //layer=li \
 //thickness=0.1 //x=8.845 //y=7.4 //x2=8.93 //y2=7.4
r440 (  136 139 ) resistor r=12.0112 //w=0.357 //l=0.335 //layer=li \
 //thickness=0.1 //x=8.845 //y=7.4 //x2=8.51 //y2=7.4
r441 (  133 280 ) resistor r=2.94794 //w=0.34 //l=0.085 //layer=li \
 //thickness=0.1 //x=7.445 //y=7.4 //x2=7.36 //y2=7.4
r442 (  132 281 ) resistor r=5.4201 //w=0.34 //l=0.17 //layer=li \
 //thickness=0.1 //x=7.97 //y=7.4 //x2=8.14 //y2=7.4
r443 (  132 133 ) resistor r=18.8235 //w=0.357 //l=0.525 //layer=li \
 //thickness=0.1 //x=7.97 //y=7.4 //x2=7.445 //y2=7.4
r444 (  126 280 ) resistor r=4.11603 //w=0.68 //l=0.17 //layer=li \
 //thickness=0.1 //x=7.36 //y=7.23 //x2=7.36 //y2=7.4
r445 (  126 307 ) resistor r=33.1979 //w=0.187 //l=0.485 //layer=li \
 //thickness=0.1 //x=7.36 //y=7.23 //x2=7.36 //y2=6.745
r446 (  123 278 ) resistor r=2.94794 //w=0.34 //l=0.085 //layer=li \
 //thickness=0.1 //x=6.565 //y=7.4 //x2=6.48 //y2=7.4
r447 (  123 125 ) resistor r=3.40616 //w=0.357 //l=0.095 //layer=li \
 //thickness=0.1 //x=6.565 //y=7.4 //x2=6.66 //y2=7.4
r448 (  122 280 ) resistor r=2.94794 //w=0.34 //l=0.085 //layer=li \
 //thickness=0.1 //x=7.275 //y=7.4 //x2=7.36 //y2=7.4
r449 (  122 125 ) resistor r=22.0504 //w=0.357 //l=0.615 //layer=li \
 //thickness=0.1 //x=7.275 //y=7.4 //x2=6.66 //y2=7.4
r450 (  116 278 ) resistor r=4.11603 //w=0.68 //l=0.17 //layer=li \
 //thickness=0.1 //x=6.48 //y=7.23 //x2=6.48 //y2=7.4
r451 (  116 306 ) resistor r=33.1979 //w=0.187 //l=0.485 //layer=li \
 //thickness=0.1 //x=6.48 //y=7.23 //x2=6.48 //y2=6.745
r452 (  113 277 ) resistor r=2.94794 //w=0.34 //l=0.085 //layer=li \
 //thickness=0.1 //x=5.685 //y=7.4 //x2=5.6 //y2=7.4
r453 (  113 115 ) resistor r=8.42577 //w=0.357 //l=0.235 //layer=li \
 //thickness=0.1 //x=5.685 //y=7.4 //x2=5.92 //y2=7.4
r454 (  112 278 ) resistor r=2.94794 //w=0.34 //l=0.085 //layer=li \
 //thickness=0.1 //x=6.395 //y=7.4 //x2=6.48 //y2=7.4
r455 (  112 115 ) resistor r=17.0308 //w=0.357 //l=0.475 //layer=li \
 //thickness=0.1 //x=6.395 //y=7.4 //x2=5.92 //y2=7.4
r456 (  106 277 ) resistor r=4.11603 //w=0.68 //l=0.17 //layer=li \
 //thickness=0.1 //x=5.6 //y=7.23 //x2=5.6 //y2=7.4
r457 (  106 305 ) resistor r=56.4706 //w=0.187 //l=0.825 //layer=li \
 //thickness=0.1 //x=5.6 //y=7.23 //x2=5.6 //y2=6.405
r458 (  103 276 ) resistor r=5.4201 //w=0.34 //l=0.17 //layer=li \
 //thickness=0.1 //x=4.98 //y=7.4 //x2=4.81 //y2=7.4
r459 (  103 105 ) resistor r=7.17087 //w=0.357 //l=0.2 //layer=li \
 //thickness=0.1 //x=4.98 //y=7.4 //x2=5.18 //y2=7.4
r460 (  102 277 ) resistor r=2.94794 //w=0.34 //l=0.085 //layer=li \
 //thickness=0.1 //x=5.515 //y=7.4 //x2=5.6 //y2=7.4
r461 (  102 105 ) resistor r=12.0112 //w=0.357 //l=0.335 //layer=li \