// File: dffx1_pcell.spi.DFFX1_PCELL.pxi
// Created: Tue Oct 15 15:56:33 2024
// 
simulator lang=spectre
x_PM_DFFX1_PCELL\%noxref_1 ( N_noxref_1_c_8_p N_noxref_1_c_97_p \
 N_noxref_1_c_1_p N_noxref_1_c_9_p N_noxref_1_c_10_p N_noxref_1_c_11_p \
 N_noxref_1_c_16_p N_noxref_1_c_30_p N_noxref_1_c_38_p N_noxref_1_c_51_p \
 N_noxref_1_c_75_p N_noxref_1_c_82_p N_noxref_1_c_226_p N_noxref_1_c_2_p \
 N_noxref_1_c_3_p N_noxref_1_c_4_p N_noxref_1_c_5_p N_noxref_1_c_6_p \
 N_noxref_1_c_7_p N_noxref_1_M0_noxref_d N_noxref_1_M3_noxref_d \
 N_noxref_1_M5_noxref_d N_noxref_1_M7_noxref_d N_noxref_1_M9_noxref_d \
 N_noxref_1_M11_noxref_d )  PM_DFFX1_PCELL\%noxref_1
x_PM_DFFX1_PCELL\%noxref_2 ( N_noxref_2_c_266_p N_noxref_2_c_258_n \
 N_noxref_2_c_366_p N_noxref_2_c_355_p N_noxref_2_c_281_p N_noxref_2_c_333_p \
 N_noxref_2_c_334_p N_noxref_2_c_267_p N_noxref_2_c_268_p N_noxref_2_c_336_p \
 N_noxref_2_c_337_p N_noxref_2_c_279_p N_noxref_2_c_303_p N_noxref_2_c_339_p \
 N_noxref_2_c_340_p N_noxref_2_c_314_p N_noxref_2_c_359_p N_noxref_2_c_421_p \
 N_noxref_2_c_422_p N_noxref_2_c_384_p N_noxref_2_c_490_p N_noxref_2_c_424_p \
 N_noxref_2_c_425_p N_noxref_2_c_426_p N_noxref_2_c_463_p N_noxref_2_c_259_n \
 N_noxref_2_c_260_n N_noxref_2_c_261_n N_noxref_2_c_262_n N_noxref_2_c_263_n \
 N_noxref_2_c_264_n N_noxref_2_M13_noxref_s N_noxref_2_M14_noxref_d \
 N_noxref_2_M16_noxref_d N_noxref_2_M18_noxref_d N_noxref_2_M19_noxref_s \
 N_noxref_2_M20_noxref_d N_noxref_2_M22_noxref_d N_noxref_2_M23_noxref_s \
 N_noxref_2_M24_noxref_d N_noxref_2_M26_noxref_d N_noxref_2_M27_noxref_s \
 N_noxref_2_M28_noxref_d N_noxref_2_M30_noxref_d N_noxref_2_M31_noxref_s \
 N_noxref_2_M32_noxref_d N_noxref_2_M34_noxref_d N_noxref_2_M35_noxref_s \
 N_noxref_2_M36_noxref_d N_noxref_2_M38_noxref_d )  PM_DFFX1_PCELL\%noxref_2
x_PM_DFFX1_PCELL\%noxref_3 ( N_noxref_3_c_547_n N_noxref_3_c_552_n \
 N_noxref_3_c_553_n N_noxref_3_c_557_n N_noxref_3_c_558_n N_noxref_3_c_576_n \
 N_noxref_3_c_580_n N_noxref_3_c_582_n N_noxref_3_c_559_n N_noxref_3_c_756_p \
 N_noxref_3_c_560_n N_noxref_3_c_561_n N_noxref_3_c_743_p \
 N_noxref_3_M2_noxref_g N_noxref_3_M5_noxref_g N_noxref_3_M17_noxref_g \
 N_noxref_3_M18_noxref_g N_noxref_3_M23_noxref_g N_noxref_3_M24_noxref_g \
 N_noxref_3_c_636_p N_noxref_3_c_637_p N_noxref_3_c_638_p N_noxref_3_c_680_p \
 N_noxref_3_c_657_p N_noxref_3_c_682_p N_noxref_3_c_658_p N_noxref_3_c_562_n \
 N_noxref_3_c_564_n N_noxref_3_c_565_n N_noxref_3_c_566_n N_noxref_3_c_567_n \
 N_noxref_3_c_568_n N_noxref_3_c_569_n N_noxref_3_c_571_n N_noxref_3_c_631_p \
 N_noxref_3_c_641_p N_noxref_3_c_626_p N_noxref_3_c_599_n \
 N_noxref_3_M4_noxref_d N_noxref_3_M19_noxref_d N_noxref_3_M21_noxref_d )  \
 PM_DFFX1_PCELL\%noxref_3
x_PM_DFFX1_PCELL\%noxref_4 ( N_noxref_4_c_779_n N_noxref_4_c_783_n \
 N_noxref_4_c_800_n N_noxref_4_c_804_n N_noxref_4_c_806_n N_noxref_4_c_784_n \
 N_noxref_4_c_869_p N_noxref_4_c_785_n N_noxref_4_c_786_n N_noxref_4_c_896_p \
 N_noxref_4_M7_noxref_g N_noxref_4_M27_noxref_g N_noxref_4_M28_noxref_g \
 N_noxref_4_c_787_n N_noxref_4_c_789_n N_noxref_4_c_790_n N_noxref_4_c_791_n \
 N_noxref_4_c_792_n N_noxref_4_c_793_n N_noxref_4_c_794_n N_noxref_4_c_796_n \
 N_noxref_4_c_819_n N_noxref_4_M6_noxref_d N_noxref_4_M23_noxref_d \
 N_noxref_4_M25_noxref_d )  PM_DFFX1_PCELL\%noxref_4
x_PM_DFFX1_PCELL\%noxref_5 ( N_noxref_5_c_932_n N_noxref_5_c_950_n \
 N_noxref_5_c_929_n N_noxref_5_c_995_n N_noxref_5_c_930_n \
 N_noxref_5_M1_noxref_g N_noxref_5_M8_noxref_g N_noxref_5_M15_noxref_g \
 N_noxref_5_M16_noxref_g N_noxref_5_M29_noxref_g N_noxref_5_M30_noxref_g \
 N_noxref_5_c_1075_p N_noxref_5_c_1077_p N_noxref_5_c_1109_p \
 N_noxref_5_c_1116_p N_noxref_5_c_981_n N_noxref_5_c_982_n N_noxref_5_c_983_n \
 N_noxref_5_c_984_n N_noxref_5_c_987_n N_noxref_5_c_1004_n N_noxref_5_c_1007_n \
 N_noxref_5_c_1009_n N_noxref_5_c_1045_p N_noxref_5_c_1094_p \
 N_noxref_5_c_1062_p N_noxref_5_c_1012_n N_noxref_5_c_1013_n \
 N_noxref_5_c_988_n N_noxref_5_c_1014_n N_noxref_5_c_1069_p \
 N_noxref_5_c_1016_n )  PM_DFFX1_PCELL\%noxref_5
x_PM_DFFX1_PCELL\%noxref_6 ( N_noxref_6_c_1207_n N_noxref_6_c_1208_n \
 N_noxref_6_c_1134_n N_noxref_6_c_1215_n N_noxref_6_c_1161_n \
 N_noxref_6_c_1165_n N_noxref_6_c_1167_n N_noxref_6_c_1171_n \
 N_noxref_6_c_1136_n N_noxref_6_c_1221_n N_noxref_6_c_1175_n \
 N_noxref_6_c_1137_n N_noxref_6_c_1138_n N_noxref_6_c_1269_n \
 N_noxref_6_c_1233_n N_noxref_6_M3_noxref_g N_noxref_6_M9_noxref_g \
 N_noxref_6_M19_noxref_g N_noxref_6_M20_noxref_g N_noxref_6_M31_noxref_g \
 N_noxref_6_M32_noxref_g N_noxref_6_c_1139_n N_noxref_6_c_1141_n \
 N_noxref_6_c_1142_n N_noxref_6_c_1143_n N_noxref_6_c_1144_n \
 N_noxref_6_c_1145_n N_noxref_6_c_1146_n N_noxref_6_c_1148_n \
 N_noxref_6_c_1149_n N_noxref_6_c_1151_n N_noxref_6_c_1152_n \
 N_noxref_6_c_1153_n N_noxref_6_c_1154_n N_noxref_6_c_1155_n \
 N_noxref_6_c_1156_n N_noxref_6_c_1158_n N_noxref_6_c_1190_n \
 N_noxref_6_c_1191_n N_noxref_6_M2_noxref_d N_noxref_6_M13_noxref_d \
 N_noxref_6_M15_noxref_d N_noxref_6_M17_noxref_d )  PM_DFFX1_PCELL\%noxref_6
x_PM_DFFX1_PCELL\%noxref_7 ( N_noxref_7_c_1385_n N_noxref_7_c_1386_n \
 N_noxref_7_c_1416_n N_noxref_7_c_1486_n N_noxref_7_c_1387_n \
 N_noxref_7_c_1430_n N_noxref_7_c_1389_n N_noxref_7_c_1488_n \
 N_noxref_7_c_1390_n N_noxref_7_c_1438_n N_noxref_7_c_1442_n \
 N_noxref_7_c_1444_n N_noxref_7_c_1392_n N_noxref_7_c_1626_n \
 N_noxref_7_c_1393_n N_noxref_7_c_1681_p N_noxref_7_c_1394_n \
 N_noxref_7_c_1581_n N_noxref_7_M0_noxref_g N_noxref_7_M6_noxref_g \
 N_noxref_7_M12_noxref_g N_noxref_7_M13_noxref_g N_noxref_7_M14_noxref_g \
 N_noxref_7_M25_noxref_g N_noxref_7_M26_noxref_g N_noxref_7_M37_noxref_g \
 N_noxref_7_M38_noxref_g N_noxref_7_c_1396_n N_noxref_7_c_1398_n \
 N_noxref_7_c_1399_n N_noxref_7_c_1400_n N_noxref_7_c_1401_n \
 N_noxref_7_c_1402_n N_noxref_7_c_1403_n N_noxref_7_c_1405_n \
 N_noxref_7_c_1595_n N_noxref_7_c_1466_n N_noxref_7_c_1497_n \
 N_noxref_7_c_1500_n N_noxref_7_c_1502_n N_noxref_7_c_1534_n \
 N_noxref_7_c_1536_n N_noxref_7_c_1537_n N_noxref_7_c_1505_n \
 N_noxref_7_c_1506_n N_noxref_7_c_1688_p N_noxref_7_c_1690_p \
 N_noxref_7_c_1691_p N_noxref_7_c_1714_p N_noxref_7_c_1722_p \
 N_noxref_7_c_1709_p N_noxref_7_c_1696_p N_noxref_7_c_1699_p \
 N_noxref_7_c_1507_n N_noxref_7_c_1543_n N_noxref_7_c_1509_n \
 N_noxref_7_c_1683_p N_noxref_7_c_1716_p N_noxref_7_c_1684_p \
 N_noxref_7_M8_noxref_d N_noxref_7_M27_noxref_d N_noxref_7_M29_noxref_d )  \
 PM_DFFX1_PCELL\%noxref_7
x_PM_DFFX1_PCELL\%noxref_8 ( N_noxref_8_c_1766_n N_noxref_8_c_1741_n \
 N_noxref_8_c_1745_n N_noxref_8_c_1748_n N_noxref_8_c_1759_n \
 N_noxref_8_M0_noxref_s )  PM_DFFX1_PCELL\%noxref_8
x_PM_DFFX1_PCELL\%noxref_9 ( N_noxref_9_c_1788_n N_noxref_9_c_1790_n \
 N_noxref_9_c_1793_n N_noxref_9_c_1796_n N_noxref_9_c_1807_n \
 N_noxref_9_M1_noxref_d N_noxref_9_M2_noxref_s )  PM_DFFX1_PCELL\%noxref_9
x_PM_DFFX1_PCELL\%noxref_10 ( N_noxref_10_c_1850_n N_noxref_10_c_1841_n \
 N_noxref_10_M4_noxref_g N_noxref_10_M21_noxref_g N_noxref_10_M22_noxref_g \
 N_noxref_10_c_1860_n N_noxref_10_c_1861_n N_noxref_10_c_1862_n \
 N_noxref_10_c_1863_n N_noxref_10_c_1865_n N_noxref_10_c_1866_n \
 N_noxref_10_c_1868_n N_noxref_10_c_1869_n N_noxref_10_c_1871_n \
 N_noxref_10_c_1872_n N_noxref_10_c_1874_n )  PM_DFFX1_PCELL\%noxref_10
x_PM_DFFX1_PCELL\%noxref_11 ( N_noxref_11_c_1933_n N_noxref_11_c_1914_n \
 N_noxref_11_c_1918_n N_noxref_11_c_1921_n N_noxref_11_c_1922_n \
 N_noxref_11_c_1925_n N_noxref_11_M3_noxref_s )  PM_DFFX1_PCELL\%noxref_11
x_PM_DFFX1_PCELL\%noxref_12 ( N_noxref_12_c_1985_n N_noxref_12_c_1966_n \
 N_noxref_12_c_1970_n N_noxref_12_c_1973_n N_noxref_12_c_1974_n \
 N_noxref_12_c_1977_n N_noxref_12_M5_noxref_s )  PM_DFFX1_PCELL\%noxref_12
x_PM_DFFX1_PCELL\%noxref_13 ( N_noxref_13_c_2038_n N_noxref_13_c_2019_n \
 N_noxref_13_c_2023_n N_noxref_13_c_2026_n N_noxref_13_c_2027_n \
 N_noxref_13_c_2030_n N_noxref_13_M7_noxref_s )  PM_DFFX1_PCELL\%noxref_13
x_PM_DFFX1_PCELL\%noxref_14 ( N_noxref_14_c_2081_n N_noxref_14_c_2072_n \
 N_noxref_14_M10_noxref_g N_noxref_14_M33_noxref_g N_noxref_14_M34_noxref_g \
 N_noxref_14_c_2089_n N_noxref_14_c_2092_n N_noxref_14_c_2094_n \
 N_noxref_14_c_2106_n N_noxref_14_c_2124_p N_noxref_14_c_2112_p \
 N_noxref_14_c_2097_n N_noxref_14_c_2098_n N_noxref_14_c_2099_n \
 N_noxref_14_c_2118_p N_noxref_14_c_2101_n )  PM_DFFX1_PCELL\%noxref_14
x_PM_DFFX1_PCELL\%noxref_15 ( N_noxref_15_c_2146_n N_noxref_15_c_2150_n \
 N_noxref_15_c_2152_n N_noxref_15_c_2141_n N_noxref_15_c_2177_n \
 N_noxref_15_c_2142_n N_noxref_15_c_2193_n N_noxref_15_M10_noxref_d \
 N_noxref_15_M31_noxref_d N_noxref_15_M33_noxref_d )  PM_DFFX1_PCELL\%noxref_15
x_PM_DFFX1_PCELL\%noxref_16 ( N_noxref_16_c_2232_n N_noxref_16_c_2213_n \
 N_noxref_16_c_2217_n N_noxref_16_c_2220_n N_noxref_16_c_2221_n \
 N_noxref_16_c_2224_n N_noxref_16_M9_noxref_s )  PM_DFFX1_PCELL\%noxref_16
x_PM_DFFX1_PCELL\%noxref_17 ( N_noxref_17_c_2265_n N_noxref_17_M11_noxref_g \
 N_noxref_17_M35_noxref_g N_noxref_17_M36_noxref_g N_noxref_17_c_2266_n \
 N_noxref_17_c_2268_n N_noxref_17_c_2269_n N_noxref_17_c_2270_n \
 N_noxref_17_c_2271_n N_noxref_17_c_2272_n N_noxref_17_c_2273_n \
 N_noxref_17_c_2275_n N_noxref_17_c_2283_n )  PM_DFFX1_PCELL\%noxref_17
x_PM_DFFX1_PCELL\%noxref_18 ( N_noxref_18_c_2330_n N_noxref_18_c_2334_n \
 N_noxref_18_c_2336_n N_noxref_18_c_2325_n N_noxref_18_c_2384_p \
 N_noxref_18_c_2326_n N_noxref_18_c_2366_n N_noxref_18_M12_noxref_d \
 N_noxref_18_M35_noxref_d N_noxref_18_M37_noxref_d )  PM_DFFX1_PCELL\%noxref_18
x_PM_DFFX1_PCELL\%noxref_19 ( N_noxref_19_c_2407_n N_noxref_19_c_2390_n \
 N_noxref_19_c_2394_n N_noxref_19_c_2397_n N_noxref_19_c_2398_n \
 N_noxref_19_c_2400_n N_noxref_19_M11_noxref_s )  PM_DFFX1_PCELL\%noxref_19
cc_1 ( N_noxref_1_c_1_p N_noxref_2_c_258_n ) capacitor c=0.00989031f //x=0.74 \
 //y=0 //x2=0.74 //y2=7.4
cc_2 ( N_noxref_1_c_2_p N_noxref_2_c_259_n ) capacitor c=0.00989031f //x=21.09 \
 //y=0 //x2=21.09 //y2=7.4
cc_3 ( N_noxref_1_c_3_p N_noxref_2_c_260_n ) capacitor c=0.00500587f //x=4.81 \
 //y=0 //x2=4.81 //y2=7.4
cc_4 ( N_noxref_1_c_4_p N_noxref_2_c_261_n ) capacitor c=0.00500587f //x=8.14 \
 //y=0 //x2=8.14 //y2=7.4
cc_5 ( N_noxref_1_c_5_p N_noxref_2_c_262_n ) capacitor c=0.00500587f //x=11.47 \
 //y=0 //x2=11.47 //y2=7.4
cc_6 ( N_noxref_1_c_6_p N_noxref_2_c_263_n ) capacitor c=0.00524516f //x=14.8 \
 //y=0 //x2=14.8 //y2=7.4
cc_7 ( N_noxref_1_c_7_p N_noxref_2_c_264_n ) capacitor c=0.0052832f //x=18.13 \
 //y=0 //x2=18.13 //y2=7.4
cc_8 ( N_noxref_1_c_8_p N_noxref_3_c_547_n ) capacitor c=0.0264756f //x=21.09 \
 //y=0 //x2=7.285 //y2=3.33
cc_9 ( N_noxref_1_c_9_p N_noxref_3_c_547_n ) capacitor c=0.00174514f //x=4.64 \
 //y=0 //x2=7.285 //y2=3.33
cc_10 ( N_noxref_1_c_10_p N_noxref_3_c_547_n ) capacitor c=0.00192599f \
 //x=5.905 //y=0 //x2=7.285 //y2=3.33
cc_11 ( N_noxref_1_c_11_p N_noxref_3_c_547_n ) capacitor c=5.39691e-19 \
 //x=7.97 //y=0 //x2=7.285 //y2=3.33
cc_12 ( N_noxref_1_c_3_p N_noxref_3_c_547_n ) capacitor c=0.00820844f //x=4.81 \
 //y=0 //x2=7.285 //y2=3.33
cc_13 ( N_noxref_1_c_8_p N_noxref_3_c_552_n ) capacitor c=0.00172266f \
 //x=21.09 //y=0 //x2=3.445 //y2=3.33
cc_14 ( N_noxref_1_c_8_p N_noxref_3_c_553_n ) capacitor c=0.0143714f //x=21.09 \
 //y=0 //x2=9.135 //y2=3.33
cc_15 ( N_noxref_1_c_11_p N_noxref_3_c_553_n ) capacitor c=0.00157139f \
 //x=7.97 //y=0 //x2=9.135 //y2=3.33
cc_16 ( N_noxref_1_c_16_p N_noxref_3_c_553_n ) capacitor c=0.00189853f \
 //x=9.235 //y=0 //x2=9.135 //y2=3.33
cc_17 ( N_noxref_1_c_4_p N_noxref_3_c_553_n ) capacitor c=0.00820844f //x=8.14 \
 //y=0 //x2=9.135 //y2=3.33
cc_18 ( N_noxref_1_c_8_p N_noxref_3_c_557_n ) capacitor c=0.00153258f \
 //x=21.09 //y=0 //x2=7.515 //y2=3.33
cc_19 ( N_noxref_1_c_3_p N_noxref_3_c_558_n ) capacitor c=9.53263e-19 //x=4.81 \
 //y=0 //x2=3.33 //y2=2.08
cc_20 ( N_noxref_1_c_4_p N_noxref_3_c_559_n ) capacitor c=0.0462817f //x=8.14 \
 //y=0 //x2=7.315 //y2=1.655
cc_21 ( N_noxref_1_c_3_p N_noxref_3_c_560_n ) capacitor c=9.64732e-19 //x=4.81 \
 //y=0 //x2=7.4 //y2=3.33
cc_22 ( N_noxref_1_c_4_p N_noxref_3_c_561_n ) capacitor c=0.0179404f //x=8.14 \
 //y=0 //x2=9.25 //y2=2.08
cc_23 ( N_noxref_1_c_16_p N_noxref_3_c_562_n ) capacitor c=0.00135046f \
 //x=9.235 //y=0 //x2=9.055 //y2=0.865
cc_24 ( N_noxref_1_M5_noxref_d N_noxref_3_c_562_n ) capacitor c=0.00220047f \
 //x=9.13 //y=0.865 //x2=9.055 //y2=0.865
cc_25 ( N_noxref_1_M5_noxref_d N_noxref_3_c_564_n ) capacitor c=0.00255985f \
 //x=9.13 //y=0.865 //x2=9.055 //y2=1.21
cc_26 ( N_noxref_1_c_4_p N_noxref_3_c_565_n ) capacitor c=0.0018059f //x=8.14 \
 //y=0 //x2=9.055 //y2=1.52
cc_27 ( N_noxref_1_c_4_p N_noxref_3_c_566_n ) capacitor c=0.0114883f //x=8.14 \
 //y=0 //x2=9.055 //y2=1.915
cc_28 ( N_noxref_1_M5_noxref_d N_noxref_3_c_567_n ) capacitor c=0.0131326f \
 //x=9.13 //y=0.865 //x2=9.43 //y2=0.71
cc_29 ( N_noxref_1_M5_noxref_d N_noxref_3_c_568_n ) capacitor c=0.00193127f \
 //x=9.13 //y=0.865 //x2=9.43 //y2=1.365
cc_30 ( N_noxref_1_c_30_p N_noxref_3_c_569_n ) capacitor c=0.00130622f \
 //x=11.3 //y=0 //x2=9.585 //y2=0.865
cc_31 ( N_noxref_1_M5_noxref_d N_noxref_3_c_569_n ) capacitor c=0.00257848f \
 //x=9.13 //y=0.865 //x2=9.585 //y2=0.865
cc_32 ( N_noxref_1_M5_noxref_d N_noxref_3_c_571_n ) capacitor c=0.00255985f \
 //x=9.13 //y=0.865 //x2=9.585 //y2=1.21
cc_33 ( N_noxref_1_c_3_p N_noxref_3_M4_noxref_d ) capacitor c=8.58106e-19 \
 //x=4.81 //y=0 //x2=6.77 //y2=0.905
cc_34 ( N_noxref_1_c_4_p N_noxref_3_M4_noxref_d ) capacitor c=0.00616547f \
 //x=8.14 //y=0 //x2=6.77 //y2=0.905
cc_35 ( N_noxref_1_M3_noxref_d N_noxref_3_M4_noxref_d ) capacitor \
 c=0.00143464f //x=5.8 //y=0.865 //x2=6.77 //y2=0.905
cc_36 ( N_noxref_1_c_8_p N_noxref_4_c_779_n ) capacitor c=0.0143714f //x=21.09 \
 //y=0 //x2=12.465 //y2=3.33
cc_37 ( N_noxref_1_c_30_p N_noxref_4_c_779_n ) capacitor c=0.00157139f \
 //x=11.3 //y=0 //x2=12.465 //y2=3.33
cc_38 ( N_noxref_1_c_38_p N_noxref_4_c_779_n ) capacitor c=0.00189853f \
 //x=12.565 //y=0 //x2=12.465 //y2=3.33
cc_39 ( N_noxref_1_c_5_p N_noxref_4_c_779_n ) capacitor c=0.00820844f \
 //x=11.47 //y=0 //x2=12.465 //y2=3.33
cc_40 ( N_noxref_1_c_8_p N_noxref_4_c_783_n ) capacitor c=0.00174211f \
 //x=21.09 //y=0 //x2=10.845 //y2=3.33
cc_41 ( N_noxref_1_c_5_p N_noxref_4_c_784_n ) capacitor c=0.0462817f //x=11.47 \
 //y=0 //x2=10.645 //y2=1.655
cc_42 ( N_noxref_1_c_4_p N_noxref_4_c_785_n ) capacitor c=9.64732e-19 //x=8.14 \
 //y=0 //x2=10.73 //y2=3.33
cc_43 ( N_noxref_1_c_5_p N_noxref_4_c_786_n ) capacitor c=0.0179404f //x=11.47 \
 //y=0 //x2=12.58 //y2=2.08
cc_44 ( N_noxref_1_c_38_p N_noxref_4_c_787_n ) capacitor c=0.00135046f \
 //x=12.565 //y=0 //x2=12.385 //y2=0.865
cc_45 ( N_noxref_1_M7_noxref_d N_noxref_4_c_787_n ) capacitor c=0.00220047f \
 //x=12.46 //y=0.865 //x2=12.385 //y2=0.865
cc_46 ( N_noxref_1_M7_noxref_d N_noxref_4_c_789_n ) capacitor c=0.00255985f \
 //x=12.46 //y=0.865 //x2=12.385 //y2=1.21
cc_47 ( N_noxref_1_c_5_p N_noxref_4_c_790_n ) capacitor c=0.0018059f //x=11.47 \
 //y=0 //x2=12.385 //y2=1.52
cc_48 ( N_noxref_1_c_5_p N_noxref_4_c_791_n ) capacitor c=0.0114883f //x=11.47 \
 //y=0 //x2=12.385 //y2=1.915
cc_49 ( N_noxref_1_M7_noxref_d N_noxref_4_c_792_n ) capacitor c=0.0131326f \
 //x=12.46 //y=0.865 //x2=12.76 //y2=0.71
cc_50 ( N_noxref_1_M7_noxref_d N_noxref_4_c_793_n ) capacitor c=0.00193127f \
 //x=12.46 //y=0.865 //x2=12.76 //y2=1.365
cc_51 ( N_noxref_1_c_51_p N_noxref_4_c_794_n ) capacitor c=0.00130622f \
 //x=14.63 //y=0 //x2=12.915 //y2=0.865
cc_52 ( N_noxref_1_M7_noxref_d N_noxref_4_c_794_n ) capacitor c=0.00257848f \
 //x=12.46 //y=0.865 //x2=12.915 //y2=0.865
cc_53 ( N_noxref_1_M7_noxref_d N_noxref_4_c_796_n ) capacitor c=0.00255985f \
 //x=12.46 //y=0.865 //x2=12.915 //y2=1.21
cc_54 ( N_noxref_1_c_4_p N_noxref_4_M6_noxref_d ) capacitor c=8.58106e-19 \
 //x=8.14 //y=0 //x2=10.1 //y2=0.905
cc_55 ( N_noxref_1_c_5_p N_noxref_4_M6_noxref_d ) capacitor c=0.00616547f \
 //x=11.47 //y=0 //x2=10.1 //y2=0.905
cc_56 ( N_noxref_1_M5_noxref_d N_noxref_4_M6_noxref_d ) capacitor \
 c=0.00143464f //x=9.13 //y=0.865 //x2=10.1 //y2=0.905
cc_57 ( N_noxref_1_c_1_p N_noxref_5_c_929_n ) capacitor c=7.64246e-19 //x=0.74 \
 //y=0 //x2=2.22 //y2=2.08
cc_58 ( N_noxref_1_c_5_p N_noxref_5_c_930_n ) capacitor c=9.2064e-19 //x=11.47 \
 //y=0 //x2=13.32 //y2=2.08
cc_59 ( N_noxref_1_c_6_p N_noxref_5_c_930_n ) capacitor c=9.53263e-19 //x=14.8 \
 //y=0 //x2=13.32 //y2=2.08
cc_60 ( N_noxref_1_c_8_p N_noxref_6_c_1134_n ) capacitor c=0.046817f //x=21.09 \
 //y=0 //x2=15.795 //y2=3.7
cc_61 ( N_noxref_1_c_6_p N_noxref_6_c_1134_n ) capacitor c=0.00533016f \
 //x=14.8 //y=0 //x2=15.795 //y2=3.7
cc_62 ( N_noxref_1_c_3_p N_noxref_6_c_1136_n ) capacitor c=0.0459932f //x=4.81 \
 //y=0 //x2=3.985 //y2=1.665
cc_63 ( N_noxref_1_c_3_p N_noxref_6_c_1137_n ) capacitor c=0.0179404f //x=4.81 \
 //y=0 //x2=5.92 //y2=2.08
cc_64 ( N_noxref_1_c_6_p N_noxref_6_c_1138_n ) capacitor c=0.0179404f //x=14.8 \
 //y=0 //x2=15.91 //y2=2.08
cc_65 ( N_noxref_1_c_10_p N_noxref_6_c_1139_n ) capacitor c=0.00135046f \
 //x=5.905 //y=0 //x2=5.725 //y2=0.865
cc_66 ( N_noxref_1_M3_noxref_d N_noxref_6_c_1139_n ) capacitor c=0.00220047f \
 //x=5.8 //y=0.865 //x2=5.725 //y2=0.865
cc_67 ( N_noxref_1_M3_noxref_d N_noxref_6_c_1141_n ) capacitor c=0.00255985f \
 //x=5.8 //y=0.865 //x2=5.725 //y2=1.21
cc_68 ( N_noxref_1_c_3_p N_noxref_6_c_1142_n ) capacitor c=0.00189421f \
 //x=4.81 //y=0 //x2=5.725 //y2=1.52
cc_69 ( N_noxref_1_c_3_p N_noxref_6_c_1143_n ) capacitor c=0.0114883f //x=4.81 \
 //y=0 //x2=5.725 //y2=1.915
cc_70 ( N_noxref_1_M3_noxref_d N_noxref_6_c_1144_n ) capacitor c=0.0131326f \
 //x=5.8 //y=0.865 //x2=6.1 //y2=0.71
cc_71 ( N_noxref_1_M3_noxref_d N_noxref_6_c_1145_n ) capacitor c=0.00193127f \
 //x=5.8 //y=0.865 //x2=6.1 //y2=1.365
cc_72 ( N_noxref_1_c_11_p N_noxref_6_c_1146_n ) capacitor c=0.00130622f \
 //x=7.97 //y=0 //x2=6.255 //y2=0.865
cc_73 ( N_noxref_1_M3_noxref_d N_noxref_6_c_1146_n ) capacitor c=0.00257848f \
 //x=5.8 //y=0.865 //x2=6.255 //y2=0.865
cc_74 ( N_noxref_1_M3_noxref_d N_noxref_6_c_1148_n ) capacitor c=0.00255985f \
 //x=5.8 //y=0.865 //x2=6.255 //y2=1.21
cc_75 ( N_noxref_1_c_75_p N_noxref_6_c_1149_n ) capacitor c=0.00135046f \
 //x=15.895 //y=0 //x2=15.715 //y2=0.865
cc_76 ( N_noxref_1_M9_noxref_d N_noxref_6_c_1149_n ) capacitor c=0.00220047f \
 //x=15.79 //y=0.865 //x2=15.715 //y2=0.865
cc_77 ( N_noxref_1_M9_noxref_d N_noxref_6_c_1151_n ) capacitor c=0.00255985f \
 //x=15.79 //y=0.865 //x2=15.715 //y2=1.21
cc_78 ( N_noxref_1_c_6_p N_noxref_6_c_1152_n ) capacitor c=0.0018059f //x=14.8 \
 //y=0 //x2=15.715 //y2=1.52
cc_79 ( N_noxref_1_c_6_p N_noxref_6_c_1153_n ) capacitor c=0.0114883f //x=14.8 \
 //y=0 //x2=15.715 //y2=1.915
cc_80 ( N_noxref_1_M9_noxref_d N_noxref_6_c_1154_n ) capacitor c=0.0131326f \
 //x=15.79 //y=0.865 //x2=16.09 //y2=0.71
cc_81 ( N_noxref_1_M9_noxref_d N_noxref_6_c_1155_n ) capacitor c=0.00193127f \
 //x=15.79 //y=0.865 //x2=16.09 //y2=1.365
cc_82 ( N_noxref_1_c_82_p N_noxref_6_c_1156_n ) capacitor c=0.00130622f \
 //x=17.96 //y=0 //x2=16.245 //y2=0.865
cc_83 ( N_noxref_1_M9_noxref_d N_noxref_6_c_1156_n ) capacitor c=0.00257848f \
 //x=15.79 //y=0.865 //x2=16.245 //y2=0.865
cc_84 ( N_noxref_1_M9_noxref_d N_noxref_6_c_1158_n ) capacitor c=0.00255985f \
 //x=15.79 //y=0.865 //x2=16.245 //y2=1.21
cc_85 ( N_noxref_1_c_3_p N_noxref_6_M2_noxref_d ) capacitor c=0.00591582f \
 //x=4.81 //y=0 //x2=3.395 //y2=0.915
cc_86 ( N_noxref_1_c_8_p N_noxref_7_c_1385_n ) capacitor c=0.0147496f \
 //x=21.09 //y=0 //x2=9.875 //y2=4.07
cc_87 ( N_noxref_1_c_8_p N_noxref_7_c_1386_n ) capacitor c=0.0015877f \
 //x=21.09 //y=0 //x2=1.225 //y2=4.07
cc_88 ( N_noxref_1_c_8_p N_noxref_7_c_1387_n ) capacitor c=0.0278143f \
 //x=21.09 //y=0 //x2=19.865 //y2=4.07
cc_89 ( N_noxref_1_c_7_p N_noxref_7_c_1387_n ) capacitor c=0.00363802f \
 //x=18.13 //y=0 //x2=19.865 //y2=4.07
cc_90 ( N_noxref_1_c_1_p N_noxref_7_c_1389_n ) capacitor c=0.0180363f //x=0.74 \
 //y=0 //x2=1.11 //y2=2.08
cc_91 ( N_noxref_1_c_4_p N_noxref_7_c_1390_n ) capacitor c=9.2064e-19 //x=8.14 \
 //y=0 //x2=9.99 //y2=2.08
cc_92 ( N_noxref_1_c_5_p N_noxref_7_c_1390_n ) capacitor c=9.53263e-19 \
 //x=11.47 //y=0 //x2=9.99 //y2=2.08
cc_93 ( N_noxref_1_c_6_p N_noxref_7_c_1392_n ) capacitor c=0.0462817f //x=14.8 \
 //y=0 //x2=13.975 //y2=1.655
cc_94 ( N_noxref_1_c_5_p N_noxref_7_c_1393_n ) capacitor c=9.64732e-19 \
 //x=11.47 //y=0 //x2=14.06 //y2=4.07
cc_95 ( N_noxref_1_c_2_p N_noxref_7_c_1394_n ) capacitor c=9.53263e-19 \
 //x=21.09 //y=0 //x2=19.98 //y2=2.08
cc_96 ( N_noxref_1_c_7_p N_noxref_7_c_1394_n ) capacitor c=9.2064e-19 \
 //x=18.13 //y=0 //x2=19.98 //y2=2.08
cc_97 ( N_noxref_1_c_97_p N_noxref_7_c_1396_n ) capacitor c=0.00132755f \
 //x=0.99 //y=0 //x2=0.81 //y2=0.875
cc_98 ( N_noxref_1_M0_noxref_d N_noxref_7_c_1396_n ) capacitor c=0.00211996f \
 //x=0.885 //y=0.875 //x2=0.81 //y2=0.875
cc_99 ( N_noxref_1_M0_noxref_d N_noxref_7_c_1398_n ) capacitor c=0.00255985f \
 //x=0.885 //y=0.875 //x2=0.81 //y2=1.22
cc_100 ( N_noxref_1_c_1_p N_noxref_7_c_1399_n ) capacitor c=0.00295461f \
 //x=0.74 //y=0 //x2=0.81 //y2=1.53
cc_101 ( N_noxref_1_c_1_p N_noxref_7_c_1400_n ) capacitor c=0.0134214f \
 //x=0.74 //y=0 //x2=0.81 //y2=1.915
cc_102 ( N_noxref_1_M0_noxref_d N_noxref_7_c_1401_n ) capacitor c=0.0131341f \
 //x=0.885 //y=0.875 //x2=1.185 //y2=0.72
cc_103 ( N_noxref_1_M0_noxref_d N_noxref_7_c_1402_n ) capacitor c=0.00193146f \
 //x=0.885 //y=0.875 //x2=1.185 //y2=1.375
cc_104 ( N_noxref_1_c_9_p N_noxref_7_c_1403_n ) capacitor c=0.00129018f \
 //x=4.64 //y=0 //x2=1.34 //y2=0.875
cc_105 ( N_noxref_1_M0_noxref_d N_noxref_7_c_1403_n ) capacitor c=0.00257848f \
 //x=0.885 //y=0.875 //x2=1.34 //y2=0.875
cc_106 ( N_noxref_1_M0_noxref_d N_noxref_7_c_1405_n ) capacitor c=0.00255985f \
 //x=0.885 //y=0.875 //x2=1.34 //y2=1.22
cc_107 ( N_noxref_1_c_5_p N_noxref_7_M8_noxref_d ) capacitor c=8.58106e-19 \
 //x=11.47 //y=0 //x2=13.43 //y2=0.905
cc_108 ( N_noxref_1_c_6_p N_noxref_7_M8_noxref_d ) capacitor c=0.00616547f \
 //x=14.8 //y=0 //x2=13.43 //y2=0.905
cc_109 ( N_noxref_1_M7_noxref_d N_noxref_7_M8_noxref_d ) capacitor \
 c=0.00143464f //x=12.46 //y=0.865 //x2=13.43 //y2=0.905
cc_110 ( N_noxref_1_c_8_p N_noxref_8_c_1741_n ) capacitor c=0.00618812f \
 //x=21.09 //y=0 //x2=1.475 //y2=1.59
cc_111 ( N_noxref_1_c_97_p N_noxref_8_c_1741_n ) capacitor c=0.00110021f \
 //x=0.99 //y=0 //x2=1.475 //y2=1.59
cc_112 ( N_noxref_1_c_9_p N_noxref_8_c_1741_n ) capacitor c=0.00179185f \
 //x=4.64 //y=0 //x2=1.475 //y2=1.59
cc_113 ( N_noxref_1_M0_noxref_d N_noxref_8_c_1741_n ) capacitor c=0.00894788f \
 //x=0.885 //y=0.875 //x2=1.475 //y2=1.59
cc_114 ( N_noxref_1_c_8_p N_noxref_8_c_1745_n ) capacitor c=0.00575184f \
 //x=21.09 //y=0 //x2=1.56 //y2=0.625
cc_115 ( N_noxref_1_c_9_p N_noxref_8_c_1745_n ) capacitor c=0.0140218f \
 //x=4.64 //y=0 //x2=1.56 //y2=0.625
cc_116 ( N_noxref_1_M0_noxref_d N_noxref_8_c_1745_n ) capacitor c=0.033954f \
 //x=0.885 //y=0.875 //x2=1.56 //y2=0.625
cc_117 ( N_noxref_1_c_8_p N_noxref_8_c_1748_n ) capacitor c=0.0139021f \
 //x=21.09 //y=0 //x2=2.445 //y2=0.54
cc_118 ( N_noxref_1_c_9_p N_noxref_8_c_1748_n ) capacitor c=0.0356078f \
 //x=4.64 //y=0 //x2=2.445 //y2=0.54
cc_119 ( N_noxref_1_c_2_p N_noxref_8_c_1748_n ) capacitor c=0.00177725f \
 //x=21.09 //y=0 //x2=2.445 //y2=0.54
cc_120 ( N_noxref_1_c_8_p N_noxref_8_M0_noxref_s ) capacitor c=0.0125336f \
 //x=21.09 //y=0 //x2=0.455 //y2=0.375
cc_121 ( N_noxref_1_c_97_p N_noxref_8_M0_noxref_s ) capacitor c=0.0140218f \
 //x=0.99 //y=0 //x2=0.455 //y2=0.375
cc_122 ( N_noxref_1_c_1_p N_noxref_8_M0_noxref_s ) capacitor c=0.0712607f \
 //x=0.74 //y=0 //x2=0.455 //y2=0.375
cc_123 ( N_noxref_1_c_9_p N_noxref_8_M0_noxref_s ) capacitor c=0.0131422f \
 //x=4.64 //y=0 //x2=0.455 //y2=0.375
cc_124 ( N_noxref_1_c_3_p N_noxref_8_M0_noxref_s ) capacitor c=3.31601e-19 \
 //x=4.81 //y=0 //x2=0.455 //y2=0.375
cc_125 ( N_noxref_1_M0_noxref_d N_noxref_8_M0_noxref_s ) capacitor c=0.033718f \
 //x=0.885 //y=0.875 //x2=0.455 //y2=0.375
cc_126 ( N_noxref_1_c_8_p N_noxref_9_c_1788_n ) capacitor c=0.00402784f \
 //x=21.09 //y=0 //x2=3.015 //y2=0.995
cc_127 ( N_noxref_1_c_9_p N_noxref_9_c_1788_n ) capacitor c=0.00829979f \
 //x=4.64 //y=0 //x2=3.015 //y2=0.995
cc_128 ( N_noxref_1_c_8_p N_noxref_9_c_1790_n ) capacitor c=0.00575184f \
 //x=21.09 //y=0 //x2=3.1 //y2=0.625
cc_129 ( N_noxref_1_c_9_p N_noxref_9_c_1790_n ) capacitor c=0.0140218f \
 //x=4.64 //y=0 //x2=3.1 //y2=0.625
cc_130 ( N_noxref_1_M0_noxref_d N_noxref_9_c_1790_n ) capacitor c=6.21394e-19 \
 //x=0.885 //y=0.875 //x2=3.1 //y2=0.625
cc_131 ( N_noxref_1_c_8_p N_noxref_9_c_1793_n ) capacitor c=0.0118365f \
 //x=21.09 //y=0 //x2=3.985 //y2=0.54
cc_132 ( N_noxref_1_c_9_p N_noxref_9_c_1793_n ) capacitor c=0.0365413f \
 //x=4.64 //y=0 //x2=3.985 //y2=0.54
cc_133 ( N_noxref_1_c_2_p N_noxref_9_c_1793_n ) capacitor c=0.00189848f \
 //x=21.09 //y=0 //x2=3.985 //y2=0.54
cc_134 ( N_noxref_1_c_8_p N_noxref_9_c_1796_n ) capacitor c=0.00287549f \
 //x=21.09 //y=0 //x2=4.07 //y2=0.625
cc_135 ( N_noxref_1_c_9_p N_noxref_9_c_1796_n ) capacitor c=0.0142658f \
 //x=4.64 //y=0 //x2=4.07 //y2=0.625
cc_136 ( N_noxref_1_c_3_p N_noxref_9_c_1796_n ) capacitor c=0.0404137f \
 //x=4.81 //y=0 //x2=4.07 //y2=0.625
cc_137 ( N_noxref_1_M0_noxref_d N_noxref_9_M1_noxref_d ) capacitor \
 c=0.00162435f //x=0.885 //y=0.875 //x2=1.86 //y2=0.91
cc_138 ( N_noxref_1_c_1_p N_noxref_9_M2_noxref_s ) capacitor c=8.16352e-19 \
 //x=0.74 //y=0 //x2=2.965 //y2=0.375
cc_139 ( N_noxref_1_c_3_p N_noxref_9_M2_noxref_s ) capacitor c=0.00183576f \
 //x=4.81 //y=0 //x2=2.965 //y2=0.375
cc_140 ( N_noxref_1_c_3_p N_noxref_10_c_1841_n ) capacitor c=9.2064e-19 \
 //x=4.81 //y=0 //x2=6.66 //y2=2.08
cc_141 ( N_noxref_1_c_4_p N_noxref_10_c_1841_n ) capacitor c=9.53263e-19 \
 //x=8.14 //y=0 //x2=6.66 //y2=2.08
cc_142 ( N_noxref_1_c_8_p N_noxref_11_c_1914_n ) capacitor c=0.00552526f \
 //x=21.09 //y=0 //x2=6.39 //y2=1.58
cc_143 ( N_noxref_1_c_10_p N_noxref_11_c_1914_n ) capacitor c=0.00113001f \
 //x=5.905 //y=0 //x2=6.39 //y2=1.58
cc_144 ( N_noxref_1_c_11_p N_noxref_11_c_1914_n ) capacitor c=0.0018242f \
 //x=7.97 //y=0 //x2=6.39 //y2=1.58
cc_145 ( N_noxref_1_M3_noxref_d N_noxref_11_c_1914_n ) capacitor c=0.00897209f \
 //x=5.8 //y=0.865 //x2=6.39 //y2=1.58
cc_146 ( N_noxref_1_c_8_p N_noxref_11_c_1918_n ) capacitor c=0.00293348f \
 //x=21.09 //y=0 //x2=6.475 //y2=0.615
cc_147 ( N_noxref_1_c_11_p N_noxref_11_c_1918_n ) capacitor c=0.0149357f \
 //x=7.97 //y=0 //x2=6.475 //y2=0.615
cc_148 ( N_noxref_1_M3_noxref_d N_noxref_11_c_1918_n ) capacitor c=0.033812f \
 //x=5.8 //y=0.865 //x2=6.475 //y2=0.615
cc_149 ( N_noxref_1_c_3_p N_noxref_11_c_1921_n ) capacitor c=2.91423e-19 \
 //x=4.81 //y=0 //x2=6.475 //y2=1.495
cc_150 ( N_noxref_1_c_8_p N_noxref_11_c_1922_n ) capacitor c=0.0120397f \
 //x=21.09 //y=0 //x2=7.36 //y2=0.53
cc_151 ( N_noxref_1_c_11_p N_noxref_11_c_1922_n ) capacitor c=0.037553f \
 //x=7.97 //y=0 //x2=7.36 //y2=0.53
cc_152 ( N_noxref_1_c_2_p N_noxref_11_c_1922_n ) capacitor c=0.00198885f \
 //x=21.09 //y=0 //x2=7.36 //y2=0.53
cc_153 ( N_noxref_1_c_8_p N_noxref_11_c_1925_n ) capacitor c=0.00292576f \
 //x=21.09 //y=0 //x2=7.445 //y2=0.615
cc_154 ( N_noxref_1_c_11_p N_noxref_11_c_1925_n ) capacitor c=0.0148673f \
 //x=7.97 //y=0 //x2=7.445 //y2=0.615
cc_155 ( N_noxref_1_c_4_p N_noxref_11_c_1925_n ) capacitor c=0.0431718f \
 //x=8.14 //y=0 //x2=7.445 //y2=0.615
cc_156 ( N_noxref_1_c_8_p N_noxref_11_M3_noxref_s ) capacitor c=0.00293348f \
 //x=21.09 //y=0 //x2=5.37 //y2=0.365
cc_157 ( N_noxref_1_c_10_p N_noxref_11_M3_noxref_s ) capacitor c=0.0149357f \
 //x=5.905 //y=0 //x2=5.37 //y2=0.365
cc_158 ( N_noxref_1_c_3_p N_noxref_11_M3_noxref_s ) capacitor c=0.0583534f \
 //x=4.81 //y=0 //x2=5.37 //y2=0.365
cc_159 ( N_noxref_1_c_4_p N_noxref_11_M3_noxref_s ) capacitor c=0.00198043f \
 //x=8.14 //y=0 //x2=5.37 //y2=0.365
cc_160 ( N_noxref_1_M3_noxref_d N_noxref_11_M3_noxref_s ) capacitor \
 c=0.0334197f //x=5.8 //y=0.865 //x2=5.37 //y2=0.365
cc_161 ( N_noxref_1_c_8_p N_noxref_12_c_1966_n ) capacitor c=0.00556119f \
 //x=21.09 //y=0 //x2=9.72 //y2=1.58
cc_162 ( N_noxref_1_c_16_p N_noxref_12_c_1966_n ) capacitor c=0.00113001f \
 //x=9.235 //y=0 //x2=9.72 //y2=1.58
cc_163 ( N_noxref_1_c_30_p N_noxref_12_c_1966_n ) capacitor c=0.00180846f \
 //x=11.3 //y=0 //x2=9.72 //y2=1.58
cc_164 ( N_noxref_1_M5_noxref_d N_noxref_12_c_1966_n ) capacitor c=0.00897268f \
 //x=9.13 //y=0.865 //x2=9.72 //y2=1.58
cc_165 ( N_noxref_1_c_8_p N_noxref_12_c_1970_n ) capacitor c=0.00302994f \
 //x=21.09 //y=0 //x2=9.805 //y2=0.615
cc_166 ( N_noxref_1_c_30_p N_noxref_12_c_1970_n ) capacitor c=0.0146208f \
 //x=11.3 //y=0 //x2=9.805 //y2=0.615
cc_167 ( N_noxref_1_M5_noxref_d N_noxref_12_c_1970_n ) capacitor c=0.033812f \
 //x=9.13 //y=0.865 //x2=9.805 //y2=0.615
cc_168 ( N_noxref_1_c_4_p N_noxref_12_c_1973_n ) capacitor c=2.91423e-19 \
 //x=8.14 //y=0 //x2=9.805 //y2=1.495
cc_169 ( N_noxref_1_c_8_p N_noxref_12_c_1974_n ) capacitor c=0.0123695f \
 //x=21.09 //y=0 //x2=10.69 //y2=0.53
cc_170 ( N_noxref_1_c_30_p N_noxref_12_c_1974_n ) capacitor c=0.0373121f \
 //x=11.3 //y=0 //x2=10.69 //y2=0.53
cc_171 ( N_noxref_1_c_2_p N_noxref_12_c_1974_n ) capacitor c=0.00198885f \
 //x=21.09 //y=0 //x2=10.69 //y2=0.53
cc_172 ( N_noxref_1_c_8_p N_noxref_12_c_1977_n ) capacitor c=0.00292576f \
 //x=21.09 //y=0 //x2=10.775 //y2=0.615
cc_173 ( N_noxref_1_c_30_p N_noxref_12_c_1977_n ) capacitor c=0.0148673f \
 //x=11.3 //y=0 //x2=10.775 //y2=0.615
cc_174 ( N_noxref_1_c_5_p N_noxref_12_c_1977_n ) capacitor c=0.0431718f \
 //x=11.47 //y=0 //x2=10.775 //y2=0.615
cc_175 ( N_noxref_1_c_8_p N_noxref_12_M5_noxref_s ) capacitor c=0.00293348f \
 //x=21.09 //y=0 //x2=8.7 //y2=0.365
cc_176 ( N_noxref_1_c_16_p N_noxref_12_M5_noxref_s ) capacitor c=0.0149357f \
 //x=9.235 //y=0 //x2=8.7 //y2=0.365
cc_177 ( N_noxref_1_c_4_p N_noxref_12_M5_noxref_s ) capacitor c=0.058339f \
 //x=8.14 //y=0 //x2=8.7 //y2=0.365
cc_178 ( N_noxref_1_c_5_p N_noxref_12_M5_noxref_s ) capacitor c=0.00198043f \
 //x=11.47 //y=0 //x2=8.7 //y2=0.365
cc_179 ( N_noxref_1_M5_noxref_d N_noxref_12_M5_noxref_s ) capacitor \