// File: DLATCHN.spi.DLATCHN.pxi
// Created: Tue Oct 15 15:48:39 2024
// 
simulator lang=spectre
x_PM_DLATCHN\%GND ( GND N_GND_c_10_p N_GND_c_90_p N_GND_c_256_p N_GND_c_52_p \
 N_GND_c_53_p N_GND_c_25_p N_GND_c_105_p N_GND_c_279_p N_GND_c_55_p \
 N_GND_c_15_p N_GND_c_21_p N_GND_c_65_p N_GND_c_276_p N_GND_c_33_p \
 N_GND_c_41_p N_GND_c_302_p N_GND_c_67_p N_GND_c_68_p N_GND_c_86_p \
 N_GND_c_113_p N_GND_c_299_p N_GND_c_114_p N_GND_c_130_p N_GND_c_142_p \
 N_GND_c_158_p N_GND_c_177_p N_GND_c_180_p N_GND_c_167_p N_GND_c_168_p \
 N_GND_c_169_p N_GND_c_192_p N_GND_c_209_p N_GND_c_213_p N_GND_c_1_p \
 N_GND_c_2_p N_GND_c_3_p N_GND_c_4_p N_GND_c_5_p N_GND_c_6_p N_GND_c_7_p \
 N_GND_c_8_p N_GND_c_9_p N_GND_M0_noxref_s N_GND_M1_noxref_s N_GND_M2_noxref_d \
 N_GND_M4_noxref_s N_GND_M5_noxref_d N_GND_M7_noxref_s N_GND_M8_noxref_s \
 N_GND_M10_noxref_s )  PM_DLATCHN\%GND
x_PM_DLATCHN\%VDD ( VDD N_VDD_c_317_p N_VDD_c_376_p N_VDD_c_318_p \
 N_VDD_c_403_p N_VDD_c_404_p N_VDD_c_324_p N_VDD_c_338_p N_VDD_c_406_p \
 N_VDD_c_407_p N_VDD_c_351_p N_VDD_c_409_p N_VDD_c_410_p N_VDD_c_384_p \
 N_VDD_c_435_p N_VDD_c_458_p N_VDD_c_521_p N_VDD_c_492_p N_VDD_c_495_p \
 N_VDD_c_512_p N_VDD_c_308_n N_VDD_c_309_n N_VDD_c_310_n N_VDD_c_311_n \
 N_VDD_c_312_n N_VDD_c_313_n N_VDD_c_314_n N_VDD_c_315_n N_VDD_c_316_n \
 N_VDD_M12_noxref_s N_VDD_M13_noxref_d N_VDD_M14_noxref_s N_VDD_M15_noxref_d \
 N_VDD_M16_noxref_s N_VDD_M17_noxref_d N_VDD_M19_noxref_d N_VDD_M20_noxref_s \
 N_VDD_M21_noxref_d N_VDD_M22_noxref_s N_VDD_M23_noxref_d N_VDD_M25_noxref_d \
 N_VDD_M26_noxref_s N_VDD_M27_noxref_d N_VDD_M28_noxref_d N_VDD_M32_noxref_d ) \
 PM_DLATCHN\%VDD
x_PM_DLATCHN\%noxref_3 ( N_noxref_3_c_647_p N_noxref_3_c_648_p \
 N_noxref_3_c_603_n N_noxref_3_c_649_p N_noxref_3_c_622_n N_noxref_3_c_625_n \
 N_noxref_3_c_606_n N_noxref_3_c_607_n N_noxref_3_M2_noxref_g \
 N_noxref_3_M16_noxref_g N_noxref_3_M17_noxref_g N_noxref_3_c_608_n \
 N_noxref_3_c_610_n N_noxref_3_c_667_p N_noxref_3_c_611_n N_noxref_3_c_612_n \
 N_noxref_3_c_613_n N_noxref_3_c_614_n N_noxref_3_c_616_n N_noxref_3_c_635_n \
 N_noxref_3_M1_noxref_d N_noxref_3_M14_noxref_d )  PM_DLATCHN\%noxref_3
x_PM_DLATCHN\%noxref_4 ( N_noxref_4_c_782_p N_noxref_4_c_783_p \
 N_noxref_4_c_742_n N_noxref_4_c_746_n N_noxref_4_c_748_n N_noxref_4_c_720_n \
 N_noxref_4_c_784_p N_noxref_4_c_722_n N_noxref_4_c_723_n N_noxref_4_c_803_p \
 N_noxref_4_M4_noxref_g N_noxref_4_M20_noxref_g N_noxref_4_M21_noxref_g \
 N_noxref_4_c_728_n N_noxref_4_c_836_p N_noxref_4_c_837_p N_noxref_4_c_730_n \
 N_noxref_4_c_762_n N_noxref_4_c_763_n N_noxref_4_c_731_n N_noxref_4_c_824_p \
 N_noxref_4_c_732_n N_noxref_4_c_734_n N_noxref_4_c_735_n \
 N_noxref_4_M3_noxref_d N_noxref_4_M16_noxref_d N_noxref_4_M18_noxref_d )  \
 PM_DLATCHN\%noxref_4
x_PM_DLATCHN\%noxref_5 ( N_noxref_5_c_854_n N_noxref_5_c_864_n \
 N_noxref_5_c_866_n N_noxref_5_c_875_n N_noxref_5_c_876_n N_noxref_5_c_1063_p \
 N_noxref_5_c_902_n N_noxref_5_c_905_n N_noxref_5_c_879_n N_noxref_5_c_936_n \
 N_noxref_5_c_880_n N_noxref_5_c_882_n N_noxref_5_M3_noxref_g \
 N_noxref_5_M5_noxref_g N_noxref_5_M18_noxref_g N_noxref_5_M19_noxref_g \
 N_noxref_5_M22_noxref_g N_noxref_5_M23_noxref_g N_noxref_5_c_945_n \
 N_noxref_5_c_948_n N_noxref_5_c_950_n N_noxref_5_c_981_n N_noxref_5_c_983_n \
 N_noxref_5_c_984_n N_noxref_5_c_953_n N_noxref_5_c_954_n N_noxref_5_c_883_n \
 N_noxref_5_c_885_n N_noxref_5_c_1019_p N_noxref_5_c_886_n N_noxref_5_c_887_n \
 N_noxref_5_c_888_n N_noxref_5_c_889_n N_noxref_5_c_891_n N_noxref_5_c_955_n \
 N_noxref_5_c_990_n N_noxref_5_c_957_n N_noxref_5_c_922_n \
 N_noxref_5_M0_noxref_d N_noxref_5_M12_noxref_d )  PM_DLATCHN\%noxref_5
x_PM_DLATCHN\%D ( N_D_c_1109_n N_D_c_1129_n D D D D D D D D D D N_D_c_1092_n \
 N_D_c_1201_n N_D_c_1097_n N_D_M1_noxref_g N_D_M6_noxref_g N_D_M14_noxref_g \
 N_D_M15_noxref_g N_D_M24_noxref_g N_D_M25_noxref_g N_D_c_1099_n N_D_c_1166_n \
 N_D_c_1167_n N_D_c_1101_n N_D_c_1148_n N_D_c_1149_n N_D_c_1102_n N_D_c_1174_n \
 N_D_c_1103_n N_D_c_1105_n N_D_c_1209_n N_D_c_1212_n N_D_c_1214_n N_D_c_1236_p \
 N_D_c_1245_p N_D_c_1231_p N_D_c_1217_n N_D_c_1218_n N_D_c_1106_n N_D_c_1220_n \
 N_D_c_1238_p N_D_c_1222_n )  PM_DLATCHN\%D
x_PM_DLATCHN\%noxref_7 ( N_noxref_7_c_1271_n N_noxref_7_c_1277_n \
 N_noxref_7_c_1300_n N_noxref_7_c_1304_n N_noxref_7_c_1306_n \
 N_noxref_7_c_1278_n N_noxref_7_c_1372_p N_noxref_7_c_1280_n \
 N_noxref_7_c_1281_n N_noxref_7_c_1358_n N_noxref_7_M7_noxref_g \
 N_noxref_7_M26_noxref_g N_noxref_7_M27_noxref_g N_noxref_7_c_1286_n \
 N_noxref_7_c_1391_p N_noxref_7_c_1392_p N_noxref_7_c_1288_n \
 N_noxref_7_c_1320_n N_noxref_7_c_1321_n N_noxref_7_c_1289_n \
 N_noxref_7_c_1379_p N_noxref_7_c_1290_n N_noxref_7_c_1292_n \
 N_noxref_7_c_1293_n N_noxref_7_M6_noxref_d N_noxref_7_M22_noxref_d \
 N_noxref_7_M24_noxref_d )  PM_DLATCHN\%noxref_7
x_PM_DLATCHN\%noxref_8 ( N_noxref_8_c_1410_n N_noxref_8_c_1462_n \
 N_noxref_8_c_1416_n N_noxref_8_c_1465_n N_noxref_8_c_1441_n \
 N_noxref_8_c_1444_n N_noxref_8_c_1419_n N_noxref_8_c_1420_n \
 N_noxref_8_c_1448_n N_noxref_8_M8_noxref_g N_noxref_8_M28_noxref_g \
 N_noxref_8_M29_noxref_g N_noxref_8_c_1423_n N_noxref_8_c_1517_p \
 N_noxref_8_c_1518_p N_noxref_8_c_1425_n N_noxref_8_c_1427_n \
 N_noxref_8_c_1521_p N_noxref_8_c_1527_p N_noxref_8_c_1428_n \
 N_noxref_8_c_1430_n N_noxref_8_c_1456_n N_noxref_8_M4_noxref_d \
 N_noxref_8_M20_noxref_d )  PM_DLATCHN\%noxref_8
x_PM_DLATCHN\%Q ( N_Q_c_1574_n N_Q_c_1580_n Q Q Q Q Q Q Q Q Q Q N_Q_c_1583_n \
 N_Q_c_1630_n N_Q_c_1612_n N_Q_c_1614_n N_Q_c_1587_n N_Q_c_1592_n N_Q_c_1616_n \
 N_Q_M10_noxref_g N_Q_M32_noxref_g N_Q_M33_noxref_g N_Q_c_1595_n N_Q_c_1662_p \
 N_Q_c_1663_p N_Q_c_1597_n N_Q_c_1599_n N_Q_c_1720_p N_Q_c_1648_p N_Q_c_1600_n \
 N_Q_c_1602_n N_Q_c_1624_n N_Q_M8_noxref_d N_Q_M9_noxref_d N_Q_M30_noxref_d )  \
 PM_DLATCHN\%Q
x_PM_DLATCHN\%noxref_10 ( N_noxref_10_c_1741_n N_noxref_10_c_1767_n \
 N_noxref_10_c_1742_n N_noxref_10_c_1788_n N_noxref_10_c_1770_n \
 N_noxref_10_c_1773_n N_noxref_10_c_1745_n N_noxref_10_c_1831_n \
 N_noxref_10_c_1746_n N_noxref_10_M11_noxref_g N_noxref_10_M34_noxref_g \
 N_noxref_10_M35_noxref_g N_noxref_10_c_1748_n N_noxref_10_c_1843_n \
 N_noxref_10_c_1846_n N_noxref_10_c_1859_p N_noxref_10_c_1750_n \
 N_noxref_10_c_1751_n N_noxref_10_c_1752_n N_noxref_10_c_1850_n \
 N_noxref_10_c_1851_n N_noxref_10_c_1853_n N_noxref_10_c_1854_n \
 N_noxref_10_M7_noxref_d N_noxref_10_M26_noxref_d )  PM_DLATCHN\%noxref_10
x_PM_DLATCHN\%noxref_11 ( N_noxref_11_c_1903_n N_noxref_11_c_1905_n \
 N_noxref_11_c_1945_n N_noxref_11_c_1906_n N_noxref_11_c_1908_n \
 N_noxref_11_c_1983_n N_noxref_11_c_1933_n N_noxref_11_c_1935_n \
 N_noxref_11_c_1912_n N_noxref_11_c_1916_n N_noxref_11_M9_noxref_g \
 N_noxref_11_M30_noxref_g N_noxref_11_M31_noxref_g N_noxref_11_c_1917_n \
 N_noxref_11_c_1956_n N_noxref_11_c_1959_n N_noxref_11_c_1996_n \
 N_noxref_11_c_1919_n N_noxref_11_c_1920_n N_noxref_11_c_1921_n \
 N_noxref_11_c_1963_n N_noxref_11_c_1964_n N_noxref_11_c_1966_n \
 N_noxref_11_c_1967_n N_noxref_11_M10_noxref_d N_noxref_11_M11_noxref_d \
 N_noxref_11_M34_noxref_d )  PM_DLATCHN\%noxref_11
x_PM_DLATCHN\%GATE_N ( GATE_N GATE_N GATE_N GATE_N GATE_N GATE_N \
 N_GATE_N_c_2065_n N_GATE_N_M0_noxref_g N_GATE_N_M12_noxref_g \
 N_GATE_N_M13_noxref_g N_GATE_N_c_2070_n N_GATE_N_c_2099_n N_GATE_N_c_2100_n \
 N_GATE_N_c_2072_n N_GATE_N_c_2089_n N_GATE_N_c_2090_n N_GATE_N_c_2073_n \
 N_GATE_N_c_2107_n N_GATE_N_c_2074_n N_GATE_N_c_2076_n N_GATE_N_c_2077_n )  \
 PM_DLATCHN\%GATE_N
x_PM_DLATCHN\%noxref_13 ( N_noxref_13_c_2114_n N_noxref_13_c_2115_n \
 N_noxref_13_c_2119_n N_noxref_13_c_2122_n N_noxref_13_c_2123_n \
 N_noxref_13_c_2126_n N_noxref_13_M2_noxref_s )  PM_DLATCHN\%noxref_13
x_PM_DLATCHN\%noxref_14 ( N_noxref_14_c_2168_n N_noxref_14_c_2169_n \
 N_noxref_14_c_2173_n N_noxref_14_c_2176_n N_noxref_14_c_2177_n \
 N_noxref_14_c_2180_n N_noxref_14_M5_noxref_s )  PM_DLATCHN\%noxref_14
x_PM_DLATCHN\%noxref_15 ( N_noxref_15_c_2222_n N_noxref_15_c_2227_n \
 N_noxref_15_c_2229_n N_noxref_15_c_2230_n N_noxref_15_M28_noxref_s \
 N_noxref_15_M29_noxref_d N_noxref_15_M31_noxref_d )  PM_DLATCHN\%noxref_15
x_PM_DLATCHN\%noxref_16 ( N_noxref_16_c_2265_n N_noxref_16_c_2269_n \
 N_noxref_16_c_2270_n N_noxref_16_c_2271_n N_noxref_16_M32_noxref_s \
 N_noxref_16_M33_noxref_d N_noxref_16_M35_noxref_d )  PM_DLATCHN\%noxref_16
cc_1 ( N_GND_c_1_p N_VDD_c_308_n ) capacitor c=0.00989031f //x=21.83 //y=0 \
 //x2=21.83 //y2=7.4
cc_2 ( N_GND_c_2_p N_VDD_c_309_n ) capacitor c=0.00989031f //x=0.63 //y=0 \
 //x2=0.74 //y2=7.4
cc_3 ( N_GND_c_3_p N_VDD_c_310_n ) capacitor c=0.00850989f //x=2.22 //y=0 \
 //x2=2.22 //y2=7.4
cc_4 ( N_GND_c_4_p N_VDD_c_311_n ) capacitor c=0.00474727f //x=4.44 //y=0 \
 //x2=4.44 //y2=7.4
cc_5 ( N_GND_c_5_p N_VDD_c_312_n ) capacitor c=0.00478842f //x=7.77 //y=0 \
 //x2=7.77 //y2=7.4
cc_6 ( N_GND_c_6_p N_VDD_c_313_n ) capacitor c=0.00474727f //x=9.99 //y=0 \
 //x2=9.99 //y2=7.4
cc_7 ( N_GND_c_7_p N_VDD_c_314_n ) capacitor c=0.0082808f //x=13.32 //y=0 \
 //x2=13.32 //y2=7.4
cc_8 ( N_GND_c_8_p N_VDD_c_315_n ) capacitor c=0.00524516f //x=15.54 //y=0 \
 //x2=15.54 //y2=7.4
cc_9 ( N_GND_c_9_p N_VDD_c_316_n ) capacitor c=0.00500587f //x=18.87 //y=0 \
 //x2=18.87 //y2=7.4
cc_10 ( N_GND_c_10_p N_noxref_3_c_603_n ) capacitor c=0.00130393f //x=21.83 \
 //y=0 //x2=3.615 //y2=2.08
cc_11 ( N_GND_c_4_p N_noxref_3_c_603_n ) capacitor c=0.0296841f //x=4.44 //y=0 \
 //x2=3.615 //y2=2.08
cc_12 ( N_GND_M1_noxref_s N_noxref_3_c_603_n ) capacitor c=0.00967469f \
 //x=2.715 //y=0.37 //x2=3.615 //y2=2.08
cc_13 ( N_GND_c_3_p N_noxref_3_c_606_n ) capacitor c=8.10282e-19 //x=2.22 \
 //y=0 //x2=3.7 //y2=3.7
cc_14 ( N_GND_c_4_p N_noxref_3_c_607_n ) capacitor c=0.0179404f //x=4.44 //y=0 \
 //x2=5.55 //y2=2.08
cc_15 ( N_GND_c_15_p N_noxref_3_c_608_n ) capacitor c=0.00135046f //x=5.535 \
 //y=0 //x2=5.355 //y2=0.865
cc_16 ( N_GND_M2_noxref_d N_noxref_3_c_608_n ) capacitor c=0.00220047f \
 //x=5.43 //y=0.865 //x2=5.355 //y2=0.865
cc_17 ( N_GND_M2_noxref_d N_noxref_3_c_610_n ) capacitor c=0.00255985f \
 //x=5.43 //y=0.865 //x2=5.355 //y2=1.21
cc_18 ( N_GND_c_4_p N_noxref_3_c_611_n ) capacitor c=0.0114883f //x=4.44 //y=0 \
 //x2=5.355 //y2=1.915
cc_19 ( N_GND_M2_noxref_d N_noxref_3_c_612_n ) capacitor c=0.0131326f //x=5.43 \
 //y=0.865 //x2=5.73 //y2=0.71
cc_20 ( N_GND_M2_noxref_d N_noxref_3_c_613_n ) capacitor c=0.00193127f \
 //x=5.43 //y=0.865 //x2=5.73 //y2=1.365
cc_21 ( N_GND_c_21_p N_noxref_3_c_614_n ) capacitor c=0.00130622f //x=7.6 \
 //y=0 //x2=5.885 //y2=0.865
cc_22 ( N_GND_M2_noxref_d N_noxref_3_c_614_n ) capacitor c=0.00257848f \
 //x=5.43 //y=0.865 //x2=5.885 //y2=0.865
cc_23 ( N_GND_M2_noxref_d N_noxref_3_c_616_n ) capacitor c=0.00255985f \
 //x=5.43 //y=0.865 //x2=5.885 //y2=1.21
cc_24 ( N_GND_c_10_p N_noxref_3_M1_noxref_d ) capacitor c=0.00124113f \
 //x=21.83 //y=0 //x2=3.145 //y2=0.91
cc_25 ( N_GND_c_25_p N_noxref_3_M1_noxref_d ) capacitor c=0.0150482f //x=3.25 \
 //y=0.535 //x2=3.145 //y2=0.91
cc_26 ( N_GND_c_3_p N_noxref_3_M1_noxref_d ) capacitor c=0.00924905f //x=2.22 \
 //y=0 //x2=3.145 //y2=0.91
cc_27 ( N_GND_c_4_p N_noxref_3_M1_noxref_d ) capacitor c=0.00949241f //x=4.44 \
 //y=0 //x2=3.145 //y2=0.91
cc_28 ( N_GND_M1_noxref_s N_noxref_3_M1_noxref_d ) capacitor c=0.076995f \
 //x=2.715 //y=0.37 //x2=3.145 //y2=0.91
cc_29 ( N_GND_c_5_p N_noxref_4_c_720_n ) capacitor c=0.0461206f //x=7.77 //y=0 \
 //x2=6.945 //y2=1.655
cc_30 ( N_GND_M4_noxref_s N_noxref_4_c_720_n ) capacitor c=3.37896e-19 \
 //x=8.265 //y=0.37 //x2=6.945 //y2=1.655
cc_31 ( N_GND_c_4_p N_noxref_4_c_722_n ) capacitor c=0.00101801f //x=4.44 \
 //y=0 //x2=7.03 //y2=3.33
cc_32 ( N_GND_c_10_p N_noxref_4_c_723_n ) capacitor c=0.00183858f //x=21.83 \
 //y=0 //x2=8.51 //y2=2.085
cc_33 ( N_GND_c_33_p N_noxref_4_c_723_n ) capacitor c=7.85046e-19 //x=8.8 \
 //y=0.535 //x2=8.51 //y2=2.085
cc_34 ( N_GND_c_5_p N_noxref_4_c_723_n ) capacitor c=0.029021f //x=7.77 //y=0 \
 //x2=8.51 //y2=2.085
cc_35 ( N_GND_c_6_p N_noxref_4_c_723_n ) capacitor c=0.00118911f //x=9.99 \
 //y=0 //x2=8.51 //y2=2.085
cc_36 ( N_GND_M4_noxref_s N_noxref_4_c_723_n ) capacitor c=0.0102562f \
 //x=8.265 //y=0.37 //x2=8.51 //y2=2.085
cc_37 ( N_GND_c_33_p N_noxref_4_c_728_n ) capacitor c=0.0123171f //x=8.8 \
 //y=0.535 //x2=8.62 //y2=0.91
cc_38 ( N_GND_M4_noxref_s N_noxref_4_c_728_n ) capacitor c=0.0317689f \
 //x=8.265 //y=0.37 //x2=8.62 //y2=0.91
cc_39 ( N_GND_c_5_p N_noxref_4_c_730_n ) capacitor c=0.00562003f //x=7.77 \
 //y=0 //x2=8.62 //y2=1.92
cc_40 ( N_GND_M4_noxref_s N_noxref_4_c_731_n ) capacitor c=0.00489f //x=8.265 \
 //y=0.37 //x2=8.995 //y2=0.755
cc_41 ( N_GND_c_41_p N_noxref_4_c_732_n ) capacitor c=0.0119174f //x=9.285 \
 //y=0.535 //x2=9.15 //y2=0.91
cc_42 ( N_GND_M4_noxref_s N_noxref_4_c_732_n ) capacitor c=0.0143355f \
 //x=8.265 //y=0.37 //x2=9.15 //y2=0.91
cc_43 ( N_GND_M4_noxref_s N_noxref_4_c_734_n ) capacitor c=0.0074042f \
 //x=8.265 //y=0.37 //x2=9.15 //y2=1.255
cc_44 ( N_GND_c_33_p N_noxref_4_c_735_n ) capacitor c=2.1838e-19 //x=8.8 \
 //y=0.535 //x2=8.51 //y2=2.085
cc_45 ( N_GND_c_5_p N_noxref_4_c_735_n ) capacitor c=0.0108179f //x=7.77 //y=0 \
 //x2=8.51 //y2=2.085
cc_46 ( N_GND_M4_noxref_s N_noxref_4_c_735_n ) capacitor c=0.0065286f \
 //x=8.265 //y=0.37 //x2=8.51 //y2=2.085
cc_47 ( N_GND_c_4_p N_noxref_4_M3_noxref_d ) capacitor c=8.58106e-19 //x=4.44 \
 //y=0 //x2=6.4 //y2=0.905
cc_48 ( N_GND_c_5_p N_noxref_4_M3_noxref_d ) capacitor c=0.00616547f //x=7.77 \
 //y=0 //x2=6.4 //y2=0.905
cc_49 ( N_GND_M2_noxref_d N_noxref_4_M3_noxref_d ) capacitor c=0.00143464f \
 //x=5.43 //y=0.865 //x2=6.4 //y2=0.905
cc_50 ( N_GND_M4_noxref_s N_noxref_4_M3_noxref_d ) capacitor c=2.09402e-19 \
 //x=8.265 //y=0.37 //x2=6.4 //y2=0.905
cc_51 ( N_GND_c_10_p N_noxref_5_c_854_n ) capacitor c=0.0365214f //x=21.83 \
 //y=0 //x2=6.175 //y2=2.96
cc_52 ( N_GND_c_52_p N_noxref_5_c_854_n ) capacitor c=0.00129597f //x=2.05 \
 //y=0 //x2=6.175 //y2=2.96
cc_53 ( N_GND_c_53_p N_noxref_5_c_854_n ) capacitor c=0.00134487f //x=2.765 \
 //y=0 //x2=6.175 //y2=2.96
cc_54 ( N_GND_c_25_p N_noxref_5_c_854_n ) capacitor c=0.00131999f //x=3.25 \
 //y=0.535 //x2=6.175 //y2=2.96
cc_55 ( N_GND_c_55_p N_noxref_5_c_854_n ) capacitor c=0.00129597f //x=4.27 \
 //y=0 //x2=6.175 //y2=2.96
cc_56 ( N_GND_c_15_p N_noxref_5_c_854_n ) capacitor c=0.00233429f //x=5.535 \
 //y=0 //x2=6.175 //y2=2.96
cc_57 ( N_GND_c_3_p N_noxref_5_c_854_n ) capacitor c=0.0144849f //x=2.22 //y=0 \
 //x2=6.175 //y2=2.96
cc_58 ( N_GND_c_4_p N_noxref_5_c_854_n ) capacitor c=0.0144849f //x=4.44 //y=0 \
 //x2=6.175 //y2=2.96
cc_59 ( N_GND_M0_noxref_s N_noxref_5_c_854_n ) capacitor c=0.00169601f \
 //x=0.495 //y=0.37 //x2=6.175 //y2=2.96
cc_60 ( N_GND_M1_noxref_s N_noxref_5_c_854_n ) capacitor c=0.00496204f \
 //x=2.715 //y=0.37 //x2=6.175 //y2=2.96
cc_61 ( N_GND_c_10_p N_noxref_5_c_864_n ) capacitor c=0.00205488f //x=21.83 \
 //y=0 //x2=1.595 //y2=2.96
cc_62 ( N_GND_M0_noxref_s N_noxref_5_c_864_n ) capacitor c=8.45543e-19 \
 //x=0.495 //y=0.37 //x2=1.595 //y2=2.96
cc_63 ( N_GND_c_10_p N_noxref_5_c_866_n ) capacitor c=0.0382572f //x=21.83 \
 //y=0 //x2=10.985 //y2=2.96
cc_64 ( N_GND_c_21_p N_noxref_5_c_866_n ) capacitor c=0.00208984f //x=7.6 \
 //y=0 //x2=10.985 //y2=2.96
cc_65 ( N_GND_c_65_p N_noxref_5_c_866_n ) capacitor c=0.00134487f //x=8.315 \
 //y=0 //x2=10.985 //y2=2.96
cc_66 ( N_GND_c_33_p N_noxref_5_c_866_n ) capacitor c=0.00140351f //x=8.8 \
 //y=0.535 //x2=10.985 //y2=2.96
cc_67 ( N_GND_c_67_p N_noxref_5_c_866_n ) capacitor c=0.00129597f //x=9.82 \
 //y=0 //x2=10.985 //y2=2.96
cc_68 ( N_GND_c_68_p N_noxref_5_c_866_n ) capacitor c=0.00230184f //x=11.085 \
 //y=0 //x2=10.985 //y2=2.96
cc_69 ( N_GND_c_5_p N_noxref_5_c_866_n ) capacitor c=0.0144849f //x=7.77 //y=0 \
 //x2=10.985 //y2=2.96
cc_70 ( N_GND_c_6_p N_noxref_5_c_866_n ) capacitor c=0.0144849f //x=9.99 //y=0 \
 //x2=10.985 //y2=2.96
cc_71 ( N_GND_M4_noxref_s N_noxref_5_c_866_n ) capacitor c=0.00500287f \
 //x=8.265 //y=0.37 //x2=10.985 //y2=2.96
cc_72 ( N_GND_c_10_p N_noxref_5_c_875_n ) capacitor c=0.00167922f //x=21.83 \
 //y=0 //x2=6.405 //y2=2.96
cc_73 ( N_GND_c_10_p N_noxref_5_c_876_n ) capacitor c=0.00139508f //x=21.83 \
 //y=0 //x2=1.395 //y2=2.08
cc_74 ( N_GND_c_3_p N_noxref_5_c_876_n ) capacitor c=0.0297979f //x=2.22 //y=0 \
 //x2=1.395 //y2=2.08
cc_75 ( N_GND_M0_noxref_s N_noxref_5_c_876_n ) capacitor c=0.00928708f \
 //x=0.495 //y=0.37 //x2=1.395 //y2=2.08
cc_76 ( N_GND_c_2_p N_noxref_5_c_879_n ) capacitor c=8.10282e-19 //x=0.63 \
 //y=0 //x2=1.48 //y2=2.96
cc_77 ( N_GND_c_4_p N_noxref_5_c_880_n ) capacitor c=9.2064e-19 //x=4.44 //y=0 \
 //x2=6.29 //y2=2.08
cc_78 ( N_GND_c_5_p N_noxref_5_c_880_n ) capacitor c=9.53263e-19 //x=7.77 \
 //y=0 //x2=6.29 //y2=2.08
cc_79 ( N_GND_c_6_p N_noxref_5_c_882_n ) capacitor c=0.0179404f //x=9.99 //y=0 \
 //x2=11.1 //y2=2.08
cc_80 ( N_GND_c_68_p N_noxref_5_c_883_n ) capacitor c=0.00135046f //x=11.085 \
 //y=0 //x2=10.905 //y2=0.865
cc_81 ( N_GND_M5_noxref_d N_noxref_5_c_883_n ) capacitor c=0.00220047f \
 //x=10.98 //y=0.865 //x2=10.905 //y2=0.865
cc_82 ( N_GND_M5_noxref_d N_noxref_5_c_885_n ) capacitor c=0.00255985f \
 //x=10.98 //y=0.865 //x2=10.905 //y2=1.21
cc_83 ( N_GND_c_6_p N_noxref_5_c_886_n ) capacitor c=0.0114883f //x=9.99 //y=0 \
 //x2=10.905 //y2=1.915
cc_84 ( N_GND_M5_noxref_d N_noxref_5_c_887_n ) capacitor c=0.0131326f \
 //x=10.98 //y=0.865 //x2=11.28 //y2=0.71
cc_85 ( N_GND_M5_noxref_d N_noxref_5_c_888_n ) capacitor c=0.00193127f \
 //x=10.98 //y=0.865 //x2=11.28 //y2=1.365
cc_86 ( N_GND_c_86_p N_noxref_5_c_889_n ) capacitor c=0.00130622f //x=13.15 \
 //y=0 //x2=11.435 //y2=0.865
cc_87 ( N_GND_M5_noxref_d N_noxref_5_c_889_n ) capacitor c=0.00257848f \
 //x=10.98 //y=0.865 //x2=11.435 //y2=0.865
cc_88 ( N_GND_M5_noxref_d N_noxref_5_c_891_n ) capacitor c=0.00255985f \
 //x=10.98 //y=0.865 //x2=11.435 //y2=1.21
cc_89 ( N_GND_c_10_p N_noxref_5_M0_noxref_d ) capacitor c=0.00194883f \
 //x=21.83 //y=0 //x2=0.925 //y2=0.91
cc_90 ( N_GND_c_90_p N_noxref_5_M0_noxref_d ) capacitor c=0.0146043f //x=1.03 \
 //y=0.535 //x2=0.925 //y2=0.91
cc_91 ( N_GND_c_2_p N_noxref_5_M0_noxref_d ) capacitor c=0.0094373f //x=0.63 \
 //y=0 //x2=0.925 //y2=0.91
cc_92 ( N_GND_c_3_p N_noxref_5_M0_noxref_d ) capacitor c=0.00945919f //x=2.22 \
 //y=0 //x2=0.925 //y2=0.91
cc_93 ( N_GND_M0_noxref_s N_noxref_5_M0_noxref_d ) capacitor c=0.076995f \
 //x=0.495 //y=0.37 //x2=0.925 //y2=0.91
cc_94 ( N_GND_c_10_p N_D_c_1092_n ) capacitor c=0.00183858f //x=21.83 //y=0 \
 //x2=2.96 //y2=2.085
cc_95 ( N_GND_c_25_p N_D_c_1092_n ) capacitor c=7.85046e-19 //x=3.25 //y=0.535 \
 //x2=2.96 //y2=2.085
cc_96 ( N_GND_c_3_p N_D_c_1092_n ) capacitor c=0.029021f //x=2.22 //y=0 \
 //x2=2.96 //y2=2.085
cc_97 ( N_GND_c_4_p N_D_c_1092_n ) capacitor c=0.00118911f //x=4.44 //y=0 \
 //x2=2.96 //y2=2.085
cc_98 ( N_GND_M1_noxref_s N_D_c_1092_n ) capacitor c=0.010785f //x=2.715 \
 //y=0.37 //x2=2.96 //y2=2.085
cc_99 ( N_GND_c_6_p N_D_c_1097_n ) capacitor c=9.2064e-19 //x=9.99 //y=0 \
 //x2=11.84 //y2=2.08
cc_100 ( N_GND_c_7_p N_D_c_1097_n ) capacitor c=9.53263e-19 //x=13.32 //y=0 \
 //x2=11.84 //y2=2.08
cc_101 ( N_GND_c_25_p N_D_c_1099_n ) capacitor c=0.0123171f //x=3.25 //y=0.535 \
 //x2=3.07 //y2=0.91
cc_102 ( N_GND_M1_noxref_s N_D_c_1099_n ) capacitor c=0.0316657f //x=2.715 \
 //y=0.37 //x2=3.07 //y2=0.91
cc_103 ( N_GND_c_3_p N_D_c_1101_n ) capacitor c=0.0038551f //x=2.22 //y=0 \
 //x2=3.07 //y2=1.92
cc_104 ( N_GND_M1_noxref_s N_D_c_1102_n ) capacitor c=0.00489f //x=2.715 \
 //y=0.37 //x2=3.445 //y2=0.755
cc_105 ( N_GND_c_105_p N_D_c_1103_n ) capacitor c=0.0119174f //x=3.735 \
 //y=0.535 //x2=3.6 //y2=0.91
cc_106 ( N_GND_M1_noxref_s N_D_c_1103_n ) capacitor c=0.0143355f //x=2.715 \
 //y=0.37 //x2=3.6 //y2=0.91
cc_107 ( N_GND_M1_noxref_s N_D_c_1105_n ) capacitor c=0.0074042f //x=2.715 \
 //y=0.37 //x2=3.6 //y2=1.255
cc_108 ( N_GND_c_25_p N_D_c_1106_n ) capacitor c=2.1838e-19 //x=3.25 //y=0.535 \
 //x2=2.96 //y2=2.085
cc_109 ( N_GND_c_3_p N_D_c_1106_n ) capacitor c=0.0108179f //x=2.22 //y=0 \
 //x2=2.96 //y2=2.085
cc_110 ( N_GND_M1_noxref_s N_D_c_1106_n ) capacitor c=0.0065286f //x=2.715 \
 //y=0.37 //x2=2.96 //y2=2.085
cc_111 ( N_GND_c_10_p N_noxref_7_c_1271_n ) capacitor c=0.0116104f //x=21.83 \
 //y=0 //x2=13.945 //y2=3.33
cc_112 ( N_GND_c_86_p N_noxref_7_c_1271_n ) capacitor c=0.00157139f //x=13.15 \
 //y=0 //x2=13.945 //y2=3.33
cc_113 ( N_GND_c_113_p N_noxref_7_c_1271_n ) capacitor c=0.00110325f \
 //x=13.865 //y=0 //x2=13.945 //y2=3.33
cc_114 ( N_GND_c_114_p N_noxref_7_c_1271_n ) capacitor c=3.56654e-19 //x=14.35 \
 //y=0.535 //x2=13.945 //y2=3.33
cc_115 ( N_GND_c_7_p N_noxref_7_c_1271_n ) capacitor c=0.00820844f //x=13.32 \
 //y=0 //x2=13.945 //y2=3.33
cc_116 ( N_GND_M7_noxref_s N_noxref_7_c_1271_n ) capacitor c=0.00175408f \
 //x=13.815 //y=0.37 //x2=13.945 //y2=3.33
cc_117 ( N_GND_c_10_p N_noxref_7_c_1277_n ) capacitor c=0.00174211f //x=21.83 \
 //y=0 //x2=12.695 //y2=3.33
cc_118 ( N_GND_c_7_p N_noxref_7_c_1278_n ) capacitor c=0.0461206f //x=13.32 \
 //y=0 //x2=12.495 //y2=1.655
cc_119 ( N_GND_M7_noxref_s N_noxref_7_c_1278_n ) capacitor c=3.37896e-19 \
 //x=13.815 //y=0.37 //x2=12.495 //y2=1.655
cc_120 ( N_GND_c_6_p N_noxref_7_c_1280_n ) capacitor c=0.00101801f //x=9.99 \
 //y=0 //x2=12.58 //y2=3.33
cc_121 ( N_GND_c_10_p N_noxref_7_c_1281_n ) capacitor c=0.00184963f //x=21.83 \
 //y=0 //x2=14.06 //y2=2.085
cc_122 ( N_GND_c_114_p N_noxref_7_c_1281_n ) capacitor c=7.87839e-19 //x=14.35 \
 //y=0.535 //x2=14.06 //y2=2.085
cc_123 ( N_GND_c_7_p N_noxref_7_c_1281_n ) capacitor c=0.029021f //x=13.32 \
 //y=0 //x2=14.06 //y2=2.085
cc_124 ( N_GND_c_8_p N_noxref_7_c_1281_n ) capacitor c=0.00118911f //x=15.54 \
 //y=0 //x2=14.06 //y2=2.085
cc_125 ( N_GND_M7_noxref_s N_noxref_7_c_1281_n ) capacitor c=0.0109271f \
 //x=13.815 //y=0.37 //x2=14.06 //y2=2.085
cc_126 ( N_GND_c_114_p N_noxref_7_c_1286_n ) capacitor c=0.0123171f //x=14.35 \
 //y=0.535 //x2=14.17 //y2=0.91
cc_127 ( N_GND_M7_noxref_s N_noxref_7_c_1286_n ) capacitor c=0.0317792f \
 //x=13.815 //y=0.37 //x2=14.17 //y2=0.91
cc_128 ( N_GND_c_7_p N_noxref_7_c_1288_n ) capacitor c=0.00562003f //x=13.32 \
 //y=0 //x2=14.17 //y2=1.92
cc_129 ( N_GND_M7_noxref_s N_noxref_7_c_1289_n ) capacitor c=0.00489f \
 //x=13.815 //y=0.37 //x2=14.545 //y2=0.755
cc_130 ( N_GND_c_130_p N_noxref_7_c_1290_n ) capacitor c=0.0119174f //x=14.835 \
 //y=0.535 //x2=14.7 //y2=0.91
cc_131 ( N_GND_M7_noxref_s N_noxref_7_c_1290_n ) capacitor c=0.0143355f \
 //x=13.815 //y=0.37 //x2=14.7 //y2=0.91
cc_132 ( N_GND_M7_noxref_s N_noxref_7_c_1292_n ) capacitor c=0.0074042f \
 //x=13.815 //y=0.37 //x2=14.7 //y2=1.255
cc_133 ( N_GND_c_114_p N_noxref_7_c_1293_n ) capacitor c=2.1838e-19 //x=14.35 \
 //y=0.535 //x2=14.06 //y2=2.085
cc_134 ( N_GND_c_7_p N_noxref_7_c_1293_n ) capacitor c=0.0108179f //x=13.32 \
 //y=0 //x2=14.06 //y2=2.085
cc_135 ( N_GND_M7_noxref_s N_noxref_7_c_1293_n ) capacitor c=0.00655738f \
 //x=13.815 //y=0.37 //x2=14.06 //y2=2.085
cc_136 ( N_GND_c_6_p N_noxref_7_M6_noxref_d ) capacitor c=8.58106e-19 //x=9.99 \
 //y=0 //x2=11.95 //y2=0.905
cc_137 ( N_GND_c_7_p N_noxref_7_M6_noxref_d ) capacitor c=0.00616547f \
 //x=13.32 //y=0 //x2=11.95 //y2=0.905
cc_138 ( N_GND_M5_noxref_d N_noxref_7_M6_noxref_d ) capacitor c=0.00143464f \
 //x=10.98 //y=0.865 //x2=11.95 //y2=0.905
cc_139 ( N_GND_M7_noxref_s N_noxref_7_M6_noxref_d ) capacitor c=2.09402e-19 \
 //x=13.815 //y=0.37 //x2=11.95 //y2=0.905
cc_140 ( N_GND_c_10_p N_noxref_8_c_1410_n ) capacitor c=0.031779f //x=21.83 \
 //y=0 //x2=16.535 //y2=3.7
cc_141 ( N_GND_c_114_p N_noxref_8_c_1410_n ) capacitor c=6.67662e-19 //x=14.35 \
 //y=0.535 //x2=16.535 //y2=3.7
cc_142 ( N_GND_c_142_p N_noxref_8_c_1410_n ) capacitor c=8.65741e-19 \
 //x=16.635 //y=0.53 //x2=16.535 //y2=3.7
cc_143 ( N_GND_c_8_p N_noxref_8_c_1410_n ) capacitor c=0.00533016f //x=15.54 \
 //y=0 //x2=16.535 //y2=3.7
cc_144 ( N_GND_M7_noxref_s N_noxref_8_c_1410_n ) capacitor c=0.00141726f \
 //x=13.815 //y=0.37 //x2=16.535 //y2=3.7
cc_145 ( N_GND_M8_noxref_s N_noxref_8_c_1410_n ) capacitor c=0.00180297f \
 //x=16.1 //y=0.365 //x2=16.535 //y2=3.7
cc_146 ( N_GND_c_10_p N_noxref_8_c_1416_n ) capacitor c=0.00130393f //x=21.83 \
 //y=0 //x2=9.165 //y2=2.08
cc_147 ( N_GND_c_6_p N_noxref_8_c_1416_n ) capacitor c=0.0296841f //x=9.99 \
 //y=0 //x2=9.165 //y2=2.08
cc_148 ( N_GND_M4_noxref_s N_noxref_8_c_1416_n ) capacitor c=0.00967469f \
 //x=8.265 //y=0.37 //x2=9.165 //y2=2.08
cc_149 ( N_GND_c_5_p N_noxref_8_c_1419_n ) capacitor c=8.10282e-19 //x=7.77 \
 //y=0 //x2=9.25 //y2=3.7
cc_150 ( N_GND_c_10_p N_noxref_8_c_1420_n ) capacitor c=5.99511e-19 //x=21.83 \
 //y=0 //x2=16.65 //y2=2.08
cc_151 ( N_GND_c_142_p N_noxref_8_c_1420_n ) capacitor c=0.001353f //x=16.635 \
 //y=0.53 //x2=16.65 //y2=2.08
cc_152 ( N_GND_c_8_p N_noxref_8_c_1420_n ) capacitor c=0.0175793f //x=15.54 \
 //y=0 //x2=16.65 //y2=2.08
cc_153 ( N_GND_c_142_p N_noxref_8_c_1423_n ) capacitor c=0.0125775f //x=16.635 \
 //y=0.53 //x2=16.455 //y2=0.905
cc_154 ( N_GND_M8_noxref_s N_noxref_8_c_1423_n ) capacitor c=0.0318086f \
 //x=16.1 //y=0.365 //x2=16.455 //y2=0.905
cc_155 ( N_GND_c_142_p N_noxref_8_c_1425_n ) capacitor c=2.1838e-19 //x=16.635 \
 //y=0.53 //x2=16.455 //y2=1.915
cc_156 ( N_GND_c_8_p N_noxref_8_c_1425_n ) capacitor c=0.0114883f //x=15.54 \
 //y=0 //x2=16.455 //y2=1.915
cc_157 ( N_GND_M8_noxref_s N_noxref_8_c_1427_n ) capacitor c=0.00476652f \
 //x=16.1 //y=0.365 //x2=16.83 //y2=0.75
cc_158 ( N_GND_c_158_p N_noxref_8_c_1428_n ) capacitor c=0.0113311f //x=17.12 \
 //y=0.53 //x2=16.985 //y2=0.905
cc_159 ( N_GND_M8_noxref_s N_noxref_8_c_1428_n ) capacitor c=0.00514143f \
 //x=16.1 //y=0.365 //x2=16.985 //y2=0.905
cc_160 ( N_GND_M8_noxref_s N_noxref_8_c_1430_n ) capacitor c=8.33128e-19 \
 //x=16.1 //y=0.365 //x2=16.985 //y2=1.25
cc_161 ( N_GND_c_10_p N_noxref_8_M4_noxref_d ) capacitor c=0.00124113f \
 //x=21.83 //y=0 //x2=8.695 //y2=0.91
cc_162 ( N_GND_c_33_p N_noxref_8_M4_noxref_d ) capacitor c=0.0150482f //x=8.8 \
 //y=0.535 //x2=8.695 //y2=0.91
cc_163 ( N_GND_c_5_p N_noxref_8_M4_noxref_d ) capacitor c=0.00924905f //x=7.77 \
 //y=0 //x2=8.695 //y2=0.91
cc_164 ( N_GND_c_6_p N_noxref_8_M4_noxref_d ) capacitor c=0.00949241f //x=9.99 \
 //y=0 //x2=8.695 //y2=0.91
cc_165 ( N_GND_M4_noxref_s N_noxref_8_M4_noxref_d ) capacitor c=0.076995f \
 //x=8.265 //y=0.37 //x2=8.695 //y2=0.91
cc_166 ( N_GND_c_10_p N_Q_c_1574_n ) capacitor c=0.0143595f //x=21.83 //y=0 \
 //x2=19.865 //y2=3.33
cc_167 ( N_GND_c_167_p N_Q_c_1574_n ) capacitor c=0.00136402f //x=18.7 //y=0 \
 //x2=19.865 //y2=3.33
cc_168 ( N_GND_c_168_p N_Q_c_1574_n ) capacitor c=0.00136402f //x=19.48 //y=0 \
 //x2=19.865 //y2=3.33
cc_169 ( N_GND_c_169_p N_Q_c_1574_n ) capacitor c=0.00131941f //x=19.965 \
 //y=0.53 //x2=19.865 //y2=3.33
cc_170 ( N_GND_c_9_p N_Q_c_1574_n ) capacitor c=0.00820844f //x=18.87 //y=0 \
 //x2=19.865 //y2=3.33
cc_171 ( N_GND_M10_noxref_s N_Q_c_1574_n ) capacitor c=0.00234507f //x=19.43 \
 //y=0.365 //x2=19.865 //y2=3.33
cc_172 ( N_GND_c_10_p N_Q_c_1580_n ) capacitor c=0.0019231f //x=21.83 //y=0 \
 //x2=18.245 //y2=3.33
cc_173 ( N_GND_M8_noxref_s N_Q_c_1580_n ) capacitor c=6.85282e-19 //x=16.1 \
 //y=0.365 //x2=18.245 //y2=3.33
cc_174 ( N_GND_c_8_p Q ) capacitor c=0.00101801f //x=15.54 //y=0 //x2=18.13 \
 //y2=2.22
cc_175 ( N_GND_c_10_p N_Q_c_1583_n ) capacitor c=0.0025679f //x=21.83 //y=0 \
 //x2=17.605 //y2=1.655
cc_176 ( N_GND_c_158_p N_Q_c_1583_n ) capacitor c=0.00381844f //x=17.12 \
 //y=0.53 //x2=17.605 //y2=1.655
cc_177 ( N_GND_c_177_p N_Q_c_1583_n ) capacitor c=0.00320884f //x=17.605 \
 //y=0.53 //x2=17.605 //y2=1.655
cc_178 ( N_GND_M8_noxref_s N_Q_c_1583_n ) capacitor c=0.0172028f //x=16.1 \
 //y=0.365 //x2=17.605 //y2=1.655
cc_179 ( N_GND_c_10_p N_Q_c_1587_n ) capacitor c=0.00187416f //x=21.83 //y=0 \
 //x2=18.045 //y2=1.655
cc_180 ( N_GND_c_180_p N_Q_c_1587_n ) capacitor c=0.00477535f //x=18.09 \
 //y=0.53 //x2=18.045 //y2=1.655
cc_181 ( N_GND_c_9_p N_Q_c_1587_n ) capacitor c=0.0466045f //x=18.87 //y=0 \
 //x2=18.045 //y2=1.655
cc_182 ( N_GND_M8_noxref_s N_Q_c_1587_n ) capacitor c=0.0158743f //x=16.1 \
 //y=0.365 //x2=18.045 //y2=1.655
cc_183 ( N_GND_M10_noxref_s N_Q_c_1587_n ) capacitor c=3.16502e-19 //x=19.43 \
 //y=0.365 //x2=18.045 //y2=1.655
cc_184 ( N_GND_c_10_p N_Q_c_1592_n ) capacitor c=5.94416e-19 //x=21.83 //y=0 \
 //x2=19.98 //y2=2.08
cc_185 ( N_GND_c_169_p N_Q_c_1592_n ) capacitor c=0.00134863f //x=19.965 \
 //y=0.53 //x2=19.98 //y2=2.08
cc_186 ( N_GND_c_9_p N_Q_c_1592_n ) capacitor c=0.0175793f //x=18.87 //y=0 \
 //x2=19.98 //y2=2.08
cc_187 ( N_GND_c_169_p N_Q_c_1595_n ) capacitor c=0.0126019f //x=19.965 \
 //y=0.53 //x2=19.785 //y2=0.905
cc_188 ( N_GND_M10_noxref_s N_Q_c_1595_n ) capacitor c=0.0318086f //x=19.43 \
 //y=0.365 //x2=19.785 //y2=0.905
cc_189 ( N_GND_c_169_p N_Q_c_1597_n ) capacitor c=2.1838e-19 //x=19.965 \
 //y=0.53 //x2=19.785 //y2=1.915
cc_190 ( N_GND_c_9_p N_Q_c_1597_n ) capacitor c=0.0130778f //x=18.87 //y=0 \
 //x2=19.785 //y2=1.915
cc_191 ( N_GND_M10_noxref_s N_Q_c_1599_n ) capacitor c=0.00479092f //x=19.43 \
 //y=0.365 //x2=20.16 //y2=0.75
cc_192 ( N_GND_c_192_p N_Q_c_1600_n ) capacitor c=0.0113555f //x=20.45 \
 //y=0.53 //x2=20.315 //y2=0.905
cc_193 ( N_GND_M10_noxref_s N_Q_c_1600_n ) capacitor c=0.00514143f //x=19.43 \
 //y=0.365 //x2=20.315 //y2=0.905
cc_194 ( N_GND_M10_noxref_s N_Q_c_1602_n ) capacitor c=8.33128e-19 //x=19.43 \
 //y=0.365 //x2=20.315 //y2=1.25
cc_195 ( N_GND_c_10_p N_Q_M8_noxref_d ) capacitor c=0.00113207f //x=21.83 \
 //y=0 //x2=16.53 //y2=0.905
cc_196 ( N_GND_c_8_p N_Q_M8_noxref_d ) capacitor c=0.00416273f //x=15.54 //y=0 \
 //x2=16.53 //y2=0.905
cc_197 ( N_GND_c_9_p N_Q_M8_noxref_d ) capacitor c=2.57516e-19 //x=18.87 //y=0 \
 //x2=16.53 //y2=0.905
cc_198 ( N_GND_M8_noxref_s N_Q_M8_noxref_d ) capacitor c=0.0767815f //x=16.1 \
 //y=0.365 //x2=16.53 //y2=0.905
cc_199 ( N_GND_c_10_p N_Q_M9_noxref_d ) capacitor c=0.00132699f //x=21.83 \
 //y=0 //x2=17.5 //y2=0.905
cc_200 ( N_GND_c_9_p N_Q_M9_noxref_d ) capacitor c=0.00609243f //x=18.87 //y=0 \
 //x2=17.5 //y2=0.905
cc_201 ( N_GND_M8_noxref_s N_Q_M9_noxref_d ) capacitor c=0.0609676f //x=16.1 \