// File: DLATCHN.spi.pex
// Created: Tue Oct 15 15:48:39 2024
// Program "Calibre xRC"
// Version "v2023.2_27.15"
// Nominal Temperature: 30C
// Circuit Temperature: 30C
// 
simulator lang=spectre
subckt PM_DLATCHN\%GND ( 1 38 50 54 62 68 76 80 83 88 92 100 108 111 116 120 \
 123 128 134 140 146 151 156 160 180 184 192 196 204 210 218 222 230 234 245 \
 248 259 271 273 285 288 300 320 340 341 342 343 344 345 346 347 )
c307 ( 347 0 ) capacitor c=0.0706776f //x=19.43 //y=0.365
c308 ( 346 0 ) capacitor c=0.0706539f //x=16.1 //y=0.365
c309 ( 345 0 ) capacitor c=0.0578714f //x=13.815 //y=0.37
c310 ( 344 0 ) capacitor c=0.0207878f //x=10.98 //y=0.865
c311 ( 343 0 ) capacitor c=0.0572693f //x=8.265 //y=0.37
c312 ( 342 0 ) capacitor c=0.0207873f //x=5.43 //y=0.865
c313 ( 341 0 ) capacitor c=0.0572693f //x=2.715 //y=0.37
c314 ( 340 0 ) capacitor c=0.0589324f //x=0.495 //y=0.37
c315 ( 320 0 ) capacitor c=0.10534f //x=18.87 //y=0
c316 ( 300 0 ) capacitor c=0.103812f //x=15.54 //y=0
c317 ( 288 0 ) capacitor c=0.10149f //x=13.32 //y=0
c318 ( 287 0 ) capacitor c=0.00440095f //x=11.1 //y=0
c319 ( 285 0 ) capacitor c=0.102231f //x=9.99 //y=0
c320 ( 273 0 ) capacitor c=0.10097f //x=7.77 //y=0
c321 ( 272 0 ) capacitor c=0.00440095f //x=5.62 //y=0
c322 ( 271 0 ) capacitor c=0.102231f //x=4.44 //y=0
c323 ( 259 0 ) capacitor c=0.0966579f //x=2.22 //y=0
c324 ( 248 0 ) capacitor c=0.192978f //x=0.63 //y=0
c325 ( 245 0 ) capacitor c=0.204536f //x=21.83 //y=0
c326 ( 243 0 ) capacitor c=0.0659517f //x=21.59 //y=0
c327 ( 237 0 ) capacitor c=0.00609805f //x=21.505 //y=0.445
c328 ( 234 0 ) capacitor c=0.00505637f //x=21.42 //y=0.53
c329 ( 233 0 ) capacitor c=0.00468234f //x=21.02 //y=0.445
c330 ( 230 0 ) capacitor c=0.00537084f //x=20.935 //y=0.53
c331 ( 225 0 ) capacitor c=0.00468234f //x=20.535 //y=0.445
c332 ( 222 0 ) capacitor c=0.00537084f //x=20.45 //y=0.53
c333 ( 221 0 ) capacitor c=0.00468234f //x=20.05 //y=0.445
c334 ( 218 0 ) capacitor c=0.00634502f //x=19.965 //y=0.53
c335 ( 213 0 ) capacitor c=0.00609805f //x=19.565 //y=0.445
c336 ( 210 0 ) capacitor c=0.0195795f //x=19.48 //y=0
c337 ( 205 0 ) capacitor c=0.0659516f //x=18.26 //y=0
c338 ( 204 0 ) capacitor c=0.0195795f //x=18.7 //y=0
c339 ( 199 0 ) capacitor c=0.00609805f //x=18.175 //y=0.445
c340 ( 196 0 ) capacitor c=0.00505127f //x=18.09 //y=0.53
c341 ( 195 0 ) capacitor c=0.00468234f //x=17.69 //y=0.445
c342 ( 192 0 ) capacitor c=0.00537002f //x=17.605 //y=0.53
c343 ( 187 0 ) capacitor c=0.00468234f //x=17.205 //y=0.445
c344 ( 184 0 ) capacitor c=0.00556167f //x=17.12 //y=0.53
c345 ( 183 0 ) capacitor c=0.00468234f //x=16.72 //y=0.445
c346 ( 180 0 ) capacitor c=0.00642891f //x=16.635 //y=0.53
c347 ( 175 0 ) capacitor c=0.00609805f //x=16.235 //y=0.445
c348 ( 172 0 ) capacitor c=0.0227441f //x=16.15 //y=0
c349 ( 169 0 ) capacitor c=0.0360689f //x=15.005 //y=0
c350 ( 168 0 ) capacitor c=0.0184787f //x=15.37 //y=0
c351 ( 163 0 ) capacitor c=0.00583665f //x=14.92 //y=0.45
c352 ( 160 0 ) capacitor c=0.00536917f //x=14.835 //y=0.535
c353 ( 159 0 ) capacitor c=0.00479856f //x=14.435 //y=0.45
c354 ( 156 0 ) capacitor c=0.00640467f //x=14.35 //y=0.535
c355 ( 151 0 ) capacitor c=0.00588377f //x=13.95 //y=0.45
c356 ( 146 0 ) capacitor c=0.0164879f //x=13.865 //y=0
c357 ( 140 0 ) capacitor c=0.0720403f //x=13.15 //y=0
c358 ( 134 0 ) capacitor c=0.0389171f //x=11.085 //y=0
c359 ( 129 0 ) capacitor c=0.0360881f //x=9.455 //y=0
c360 ( 128 0 ) capacitor c=0.0160123f //x=9.82 //y=0
c361 ( 123 0 ) capacitor c=0.00583665f //x=9.37 //y=0.45
c362 ( 120 0 ) capacitor c=0.00531808f //x=9.285 //y=0.535
c363 ( 119 0 ) capacitor c=0.00479856f //x=8.885 //y=0.45
c364 ( 116 0 ) capacitor c=0.006266f //x=8.8 //y=0.535
c365 ( 111 0 ) capacitor c=0.00588377f //x=8.4 //y=0.45
c366 ( 108 0 ) capacitor c=0.0164879f //x=8.315 //y=0
c367 ( 100 0 ) capacitor c=0.0720721f //x=7.6 //y=0
c368 ( 92 0 ) capacitor c=0.0389171f //x=5.535 //y=0
c369 ( 89 0 ) capacitor c=0.0360881f //x=3.905 //y=0
c370 ( 88 0 ) capacitor c=0.0160123f //x=4.27 //y=0
c371 ( 83 0 ) capacitor c=0.00583665f //x=3.82 //y=0.45
c372 ( 80 0 ) capacitor c=0.00531808f //x=3.735 //y=0.535
c373 ( 79 0 ) capacitor c=0.00479856f //x=3.335 //y=0.45
c374 ( 76 0 ) capacitor c=0.006266f //x=3.25 //y=0.535
c375 ( 71 0 ) capacitor c=0.00592191f //x=2.85 //y=0.45
c376 ( 68 0 ) capacitor c=0.0164879f //x=2.765 //y=0
c377 ( 63 0 ) capacitor c=0.0360681f //x=1.685 //y=0
c378 ( 62 0 ) capacitor c=0.0160123f //x=2.05 //y=0
c379 ( 57 0 ) capacitor c=0.00587411f //x=1.6 //y=0.45
c380 ( 54 0 ) capacitor c=0.00536604f //x=1.515 //y=0.535
c381 ( 53 0 ) capacitor c=0.00479856f //x=1.115 //y=0.45
c382 ( 50 0 ) capacitor c=0.00707849f //x=1.03 //y=0.535
c383 ( 45 0 ) capacitor c=0.00592191f //x=0.63 //y=0.45
c384 ( 38 0 ) capacitor c=0.748287f //x=21.83 //y=0
r385 (  328 329 ) resistor r=14.8796 //w=0.357 //l=0.415 //layer=li \
 //thickness=0.1 //x=21.09 //y=0 //x2=21.505 //y2=0
r386 (  326 328 ) resistor r=2.5098 //w=0.357 //l=0.07 //layer=li \
 //thickness=0.1 //x=21.02 //y=0 //x2=21.09 //y2=0
r387 (  325 326 ) resistor r=17.3894 //w=0.357 //l=0.485 //layer=li \
 //thickness=0.1 //x=20.535 //y=0 //x2=21.02 //y2=0
r388 (  324 325 ) resistor r=17.3894 //w=0.357 //l=0.485 //layer=li \
 //thickness=0.1 //x=20.05 //y=0 //x2=20.535 //y2=0
r389 (  323 324 ) resistor r=2.5098 //w=0.357 //l=0.07 //layer=li \
 //thickness=0.1 //x=19.98 //y=0 //x2=20.05 //y2=0
r390 (  321 323 ) resistor r=14.8796 //w=0.357 //l=0.415 //layer=li \
 //thickness=0.1 //x=19.565 //y=0 //x2=19.98 //y2=0
r391 (  308 309 ) resistor r=17.3894 //w=0.357 //l=0.485 //layer=li \
 //thickness=0.1 //x=17.69 //y=0 //x2=18.175 //y2=0
r392 (  307 308 ) resistor r=10.7563 //w=0.357 //l=0.3 //layer=li \
 //thickness=0.1 //x=17.39 //y=0 //x2=17.69 //y2=0
r393 (  305 307 ) resistor r=6.63305 //w=0.357 //l=0.185 //layer=li \
 //thickness=0.1 //x=17.205 //y=0 //x2=17.39 //y2=0
r394 (  304 305 ) resistor r=17.3894 //w=0.357 //l=0.485 //layer=li \
 //thickness=0.1 //x=16.72 //y=0 //x2=17.205 //y2=0
r395 (  303 304 ) resistor r=15.7759 //w=0.357 //l=0.44 //layer=li \
 //thickness=0.1 //x=16.28 //y=0 //x2=16.72 //y2=0
r396 (  301 303 ) resistor r=1.61345 //w=0.357 //l=0.045 //layer=li \
 //thickness=0.1 //x=16.235 //y=0 //x2=16.28 //y2=0
r397 (  292 293 ) resistor r=4.30252 //w=0.357 //l=0.12 //layer=li \
 //thickness=0.1 //x=14.8 //y=0 //x2=14.92 //y2=0
r398 (  290 292 ) resistor r=13.0868 //w=0.357 //l=0.365 //layer=li \
 //thickness=0.1 //x=14.435 //y=0 //x2=14.8 //y2=0
r399 (  289 290 ) resistor r=17.3894 //w=0.357 //l=0.485 //layer=li \
 //thickness=0.1 //x=13.95 //y=0 //x2=14.435 //y2=0
r400 (  277 278 ) resistor r=17.3894 //w=0.357 //l=0.485 //layer=li \
 //thickness=0.1 //x=8.885 //y=0 //x2=9.37 //y2=0
r401 (  276 277 ) resistor r=13.4454 //w=0.357 //l=0.375 //layer=li \
 //thickness=0.1 //x=8.51 //y=0 //x2=8.885 //y2=0
r402 (  274 276 ) resistor r=3.94398 //w=0.357 //l=0.11 //layer=li \
 //thickness=0.1 //x=8.4 //y=0 //x2=8.51 //y2=0
r403 (  263 264 ) resistor r=17.3894 //w=0.357 //l=0.485 //layer=li \
 //thickness=0.1 //x=3.335 //y=0 //x2=3.82 //y2=0
r404 (  262 263 ) resistor r=0.179272 //w=0.357 //l=0.005 //layer=li \
 //thickness=0.1 //x=3.33 //y=0 //x2=3.335 //y2=0
r405 (  260 262 ) resistor r=17.2101 //w=0.357 //l=0.48 //layer=li \
 //thickness=0.1 //x=2.85 //y=0 //x2=3.33 //y2=0
r406 (  251 252 ) resistor r=17.3894 //w=0.357 //l=0.485 //layer=li \
 //thickness=0.1 //x=1.115 //y=0 //x2=1.6 //y2=0
r407 (  250 251 ) resistor r=13.4454 //w=0.357 //l=0.375 //layer=li \
 //thickness=0.1 //x=0.74 //y=0 //x2=1.115 //y2=0
r408 (  248 250 ) resistor r=3.94398 //w=0.357 //l=0.11 //layer=li \
 //thickness=0.1 //x=0.63 //y=0 //x2=0.74 //y2=0
r409 (  243 329 ) resistor r=3.04762 //w=0.357 //l=0.085 //layer=li \
 //thickness=0.1 //x=21.59 //y=0 //x2=21.505 //y2=0
r410 (  243 245 ) resistor r=8.60504 //w=0.357 //l=0.24 //layer=li \
 //thickness=0.1 //x=21.59 //y=0 //x2=21.83 //y2=0
r411 (  238 347 ) resistor r=5.4201 //w=0.17 //l=0.085 //layer=li \
 //thickness=0.1 //x=21.505 //y=0.615 //x2=21.505 //y2=0.53
r412 (  238 347 ) resistor r=18.139 //w=0.187 //l=0.265 //layer=li \
 //thickness=0.1 //x=21.505 //y=0.615 //x2=21.505 //y2=0.88
r413 (  237 347 ) resistor r=5.4201 //w=0.17 //l=0.085 //layer=li \
 //thickness=0.1 //x=21.505 //y=0.445 //x2=21.505 //y2=0.53
r414 (  236 329 ) resistor r=5.03728 //w=0.34 //l=0.17 //layer=li \
 //thickness=0.1 //x=21.505 //y=0.17 //x2=21.505 //y2=0
r415 (  236 237 ) resistor r=18.8235 //w=0.187 //l=0.275 //layer=li \
 //thickness=0.1 //x=21.505 //y=0.17 //x2=21.505 //y2=0.445
r416 (  235 347 ) resistor r=5.4201 //w=0.17 //l=0.085 //layer=li \
 //thickness=0.1 //x=21.105 //y=0.53 //x2=21.02 //y2=0.53
r417 (  234 347 ) resistor r=1.40859 //w=0.34 //l=0.085 //layer=li \
 //thickness=0.1 //x=21.42 //y=0.53 //x2=21.505 //y2=0.53
r418 (  234 235 ) resistor r=21.5615 //w=0.187 //l=0.315 //layer=li \
 //thickness=0.1 //x=21.42 //y=0.53 //x2=21.105 //y2=0.53
r419 (  233 347 ) resistor r=1.40859 //w=0.34 //l=0.085 //layer=li \
 //thickness=0.1 //x=21.02 //y=0.445 //x2=21.02 //y2=0.53
r420 (  232 326 ) resistor r=5.03728 //w=0.34 //l=0.17 //layer=li \
 //thickness=0.1 //x=21.02 //y=0.17 //x2=21.02 //y2=0
r421 (  232 233 ) resistor r=18.8235 //w=0.187 //l=0.275 //layer=li \
 //thickness=0.1 //x=21.02 //y=0.17 //x2=21.02 //y2=0.445
r422 (  231 347 ) resistor r=6.4 //w=0.17 //l=0.085 //layer=li //thickness=0.1 \
 //x=20.62 //y=0.53 //x2=20.535 //y2=0.53
r423 (  230 347 ) resistor r=5.4201 //w=0.17 //l=0.085 //layer=li \
 //thickness=0.1 //x=20.935 //y=0.53 //x2=21.02 //y2=0.53
r424 (  230 231 ) resistor r=21.5615 //w=0.187 //l=0.315 //layer=li \
 //thickness=0.1 //x=20.935 //y=0.53 //x2=20.62 //y2=0.53
r425 (  226 347 ) resistor r=6.4 //w=0.17 //l=0.085 //layer=li //thickness=0.1 \
 //x=20.535 //y=0.615 //x2=20.535 //y2=0.53
r426 (  226 347 ) resistor r=18.139 //w=0.187 //l=0.265 //layer=li \
 //thickness=0.1 //x=20.535 //y=0.615 //x2=20.535 //y2=0.88
r427 (  225 347 ) resistor r=6.4 //w=0.17 //l=0.085 //layer=li //thickness=0.1 \
 //x=20.535 //y=0.445 //x2=20.535 //y2=0.53
r428 (  224 325 ) resistor r=5.03728 //w=0.34 //l=0.17 //layer=li \
 //thickness=0.1 //x=20.535 //y=0.17 //x2=20.535 //y2=0
r429 (  224 225 ) resistor r=18.8235 //w=0.187 //l=0.275 //layer=li \
 //thickness=0.1 //x=20.535 //y=0.17 //x2=20.535 //y2=0.445
r430 (  223 347 ) resistor r=5.4201 //w=0.17 //l=0.085 //layer=li \
 //thickness=0.1 //x=20.135 //y=0.53 //x2=20.05 //y2=0.53
r431 (  222 347 ) resistor r=6.4 //w=0.17 //l=0.085 //layer=li //thickness=0.1 \
 //x=20.45 //y=0.53 //x2=20.535 //y2=0.53
r432 (  222 223 ) resistor r=21.5615 //w=0.187 //l=0.315 //layer=li \
 //thickness=0.1 //x=20.45 //y=0.53 //x2=20.135 //y2=0.53
r433 (  221 347 ) resistor r=1.40859 //w=0.34 //l=0.085 //layer=li \
 //thickness=0.1 //x=20.05 //y=0.445 //x2=20.05 //y2=0.53
r434 (  220 324 ) resistor r=5.03728 //w=0.34 //l=0.17 //layer=li \
 //thickness=0.1 //x=20.05 //y=0.17 //x2=20.05 //y2=0
r435 (  220 221 ) resistor r=18.8235 //w=0.187 //l=0.275 //layer=li \
 //thickness=0.1 //x=20.05 //y=0.17 //x2=20.05 //y2=0.445
r436 (  219 347 ) resistor r=1.40859 //w=0.34 //l=0.085 //layer=li \
 //thickness=0.1 //x=19.65 //y=0.53 //x2=19.565 //y2=0.53
r437 (  218 347 ) resistor r=5.4201 //w=0.17 //l=0.085 //layer=li \
 //thickness=0.1 //x=19.965 //y=0.53 //x2=20.05 //y2=0.53
r438 (  218 219 ) resistor r=21.5615 //w=0.187 //l=0.315 //layer=li \
 //thickness=0.1 //x=19.965 //y=0.53 //x2=19.65 //y2=0.53
r439 (  214 347 ) resistor r=5.4201 //w=0.17 //l=0.085 //layer=li \
 //thickness=0.1 //x=19.565 //y=0.615 //x2=19.565 //y2=0.53
r440 (  214 347 ) resistor r=41.4118 //w=0.187 //l=0.605 //layer=li \
 //thickness=0.1 //x=19.565 //y=0.615 //x2=19.565 //y2=1.22
r441 (  213 347 ) resistor r=5.4201 //w=0.17 //l=0.085 //layer=li \
 //thickness=0.1 //x=19.565 //y=0.445 //x2=19.565 //y2=0.53
r442 (  212 321 ) resistor r=5.03728 //w=0.34 //l=0.17 //layer=li \
 //thickness=0.1 //x=19.565 //y=0.17 //x2=19.565 //y2=0
r443 (  212 213 ) resistor r=18.8235 //w=0.187 //l=0.275 //layer=li \
 //thickness=0.1 //x=19.565 //y=0.17 //x2=19.565 //y2=0.445
r444 (  211 320 ) resistor r=5.4201 //w=0.34 //l=0.17 //layer=li \
 //thickness=0.1 //x=19.04 //y=0 //x2=18.87 //y2=0
r445 (  210 321 ) resistor r=3.04762 //w=0.357 //l=0.085 //layer=li \
 //thickness=0.1 //x=19.48 //y=0 //x2=19.565 //y2=0
r446 (  210 211 ) resistor r=15.7759 //w=0.357 //l=0.44 //layer=li \
 //thickness=0.1 //x=19.48 //y=0 //x2=19.04 //y2=0
r447 (  205 309 ) resistor r=3.04762 //w=0.357 //l=0.085 //layer=li \
 //thickness=0.1 //x=18.26 //y=0 //x2=18.175 //y2=0
r448 (  205 207 ) resistor r=8.60504 //w=0.357 //l=0.24 //layer=li \
 //thickness=0.1 //x=18.26 //y=0 //x2=18.5 //y2=0
r449 (  204 320 ) resistor r=5.4201 //w=0.34 //l=0.17 //layer=li \
 //thickness=0.1 //x=18.7 //y=0 //x2=18.87 //y2=0
r450 (  204 207 ) resistor r=7.17087 //w=0.357 //l=0.2 //layer=li \
 //thickness=0.1 //x=18.7 //y=0 //x2=18.5 //y2=0
r451 (  200 346 ) resistor r=5.4201 //w=0.17 //l=0.085 //layer=li \
 //thickness=0.1 //x=18.175 //y=0.615 //x2=18.175 //y2=0.53
r452 (  200 346 ) resistor r=18.139 //w=0.187 //l=0.265 //layer=li \
 //thickness=0.1 //x=18.175 //y=0.615 //x2=18.175 //y2=0.88
r453 (  199 346 ) resistor r=5.4201 //w=0.17 //l=0.085 //layer=li \
 //thickness=0.1 //x=18.175 //y=0.445 //x2=18.175 //y2=0.53
r454 (  198 309 ) resistor r=5.03728 //w=0.34 //l=0.17 //layer=li \
 //thickness=0.1 //x=18.175 //y=0.17 //x2=18.175 //y2=0
r455 (  198 199 ) resistor r=18.8235 //w=0.187 //l=0.275 //layer=li \
 //thickness=0.1 //x=18.175 //y=0.17 //x2=18.175 //y2=0.445
r456 (  197 346 ) resistor r=5.4201 //w=0.17 //l=0.085 //layer=li \
 //thickness=0.1 //x=17.775 //y=0.53 //x2=17.69 //y2=0.53
r457 (  196 346 ) resistor r=1.40859 //w=0.34 //l=0.085 //layer=li \
 //thickness=0.1 //x=18.09 //y=0.53 //x2=18.175 //y2=0.53
r458 (  196 197 ) resistor r=21.5615 //w=0.187 //l=0.315 //layer=li \
 //thickness=0.1 //x=18.09 //y=0.53 //x2=17.775 //y2=0.53
r459 (  195 346 ) resistor r=1.40859 //w=0.34 //l=0.085 //layer=li \
 //thickness=0.1 //x=17.69 //y=0.445 //x2=17.69 //y2=0.53
r460 (  194 308 ) resistor r=5.03728 //w=0.34 //l=0.17 //layer=li \
 //thickness=0.1 //x=17.69 //y=0.17 //x2=17.69 //y2=0
r461 (  194 195 ) resistor r=18.8235 //w=0.187 //l=0.275 //layer=li \
 //thickness=0.1 //x=17.69 //y=0.17 //x2=17.69 //y2=0.445
r462 (  193 346 ) resistor r=6.4 //w=0.17 //l=0.085 //layer=li //thickness=0.1 \
 //x=17.29 //y=0.53 //x2=17.205 //y2=0.53
r463 (  192 346 ) resistor r=5.4201 //w=0.17 //l=0.085 //layer=li \
 //thickness=0.1 //x=17.605 //y=0.53 //x2=17.69 //y2=0.53
r464 (  192 193 ) resistor r=21.5615 //w=0.187 //l=0.315 //layer=li \
 //thickness=0.1 //x=17.605 //y=0.53 //x2=17.29 //y2=0.53
r465 (  188 346 ) resistor r=6.4 //w=0.17 //l=0.085 //layer=li //thickness=0.1 \
 //x=17.205 //y=0.615 //x2=17.205 //y2=0.53
r466 (  188 346 ) resistor r=18.139 //w=0.187 //l=0.265 //layer=li \
 //thickness=0.1 //x=17.205 //y=0.615 //x2=17.205 //y2=0.88
r467 (  187 346 ) resistor r=6.4 //w=0.17 //l=0.085 //layer=li //thickness=0.1 \
 //x=17.205 //y=0.445 //x2=17.205 //y2=0.53
r468 (  186 305 ) resistor r=5.03728 //w=0.34 //l=0.17 //layer=li \
 //thickness=0.1 //x=17.205 //y=0.17 //x2=17.205 //y2=0
r469 (  186 187 ) resistor r=18.8235 //w=0.187 //l=0.275 //layer=li \
 //thickness=0.1 //x=17.205 //y=0.17 //x2=17.205 //y2=0.445
r470 (  185 346 ) resistor r=5.4201 //w=0.17 //l=0.085 //layer=li \
 //thickness=0.1 //x=16.805 //y=0.53 //x2=16.72 //y2=0.53
r471 (  184 346 ) resistor r=6.4 //w=0.17 //l=0.085 //layer=li //thickness=0.1 \
 //x=17.12 //y=0.53 //x2=17.205 //y2=0.53
r472 (  184 185 ) resistor r=21.5615 //w=0.187 //l=0.315 //layer=li \
 //thickness=0.1 //x=17.12 //y=0.53 //x2=16.805 //y2=0.53
r473 (  183 346 ) resistor r=1.40859 //w=0.34 //l=0.085 //layer=li \
 //thickness=0.1 //x=16.72 //y=0.445 //x2=16.72 //y2=0.53
r474 (  182 304 ) resistor r=5.03728 //w=0.34 //l=0.17 //layer=li \
 //thickness=0.1 //x=16.72 //y=0.17 //x2=16.72 //y2=0
r475 (  182 183 ) resistor r=18.8235 //w=0.187 //l=0.275 //layer=li \
 //thickness=0.1 //x=16.72 //y=0.17 //x2=16.72 //y2=0.445
r476 (  181 346 ) resistor r=1.40859 //w=0.34 //l=0.085 //layer=li \
 //thickness=0.1 //x=16.32 //y=0.53 //x2=16.235 //y2=0.53
r477 (  180 346 ) resistor r=5.4201 //w=0.17 //l=0.085 //layer=li \
 //thickness=0.1 //x=16.635 //y=0.53 //x2=16.72 //y2=0.53
r478 (  180 181 ) resistor r=21.5615 //w=0.187 //l=0.315 //layer=li \
 //thickness=0.1 //x=16.635 //y=0.53 //x2=16.32 //y2=0.53
r479 (  176 346 ) resistor r=5.4201 //w=0.17 //l=0.085 //layer=li \
 //thickness=0.1 //x=16.235 //y=0.615 //x2=16.235 //y2=0.53
r480 (  176 346 ) resistor r=41.4118 //w=0.187 //l=0.605 //layer=li \
 //thickness=0.1 //x=16.235 //y=0.615 //x2=16.235 //y2=1.22
r481 (  175 346 ) resistor r=5.4201 //w=0.17 //l=0.085 //layer=li \
 //thickness=0.1 //x=16.235 //y=0.445 //x2=16.235 //y2=0.53
r482 (  174 301 ) resistor r=5.03728 //w=0.34 //l=0.17 //layer=li \
 //thickness=0.1 //x=16.235 //y=0.17 //x2=16.235 //y2=0
r483 (  174 175 ) resistor r=18.8235 //w=0.187 //l=0.275 //layer=li \
 //thickness=0.1 //x=16.235 //y=0.17 //x2=16.235 //y2=0.445
r484 (  173 300 ) resistor r=5.4201 //w=0.34 //l=0.17 //layer=li \
 //thickness=0.1 //x=15.71 //y=0 //x2=15.54 //y2=0
r485 (  172 301 ) resistor r=3.04762 //w=0.357 //l=0.085 //layer=li \
 //thickness=0.1 //x=16.15 //y=0 //x2=16.235 //y2=0
r486 (  172 173 ) resistor r=15.7759 //w=0.357 //l=0.44 //layer=li \
 //thickness=0.1 //x=16.15 //y=0 //x2=15.71 //y2=0
r487 (  169 293 ) resistor r=3.04762 //w=0.357 //l=0.085 //layer=li \
 //thickness=0.1 //x=15.005 //y=0 //x2=14.92 //y2=0
r488 (  168 300 ) resistor r=5.4201 //w=0.34 //l=0.17 //layer=li \
 //thickness=0.1 //x=15.37 //y=0 //x2=15.54 //y2=0
r489 (  168 169 ) resistor r=13.0868 //w=0.357 //l=0.365 //layer=li \
 //thickness=0.1 //x=15.37 //y=0 //x2=15.005 //y2=0
r490 (  164 345 ) resistor r=5.4201 //w=0.17 //l=0.085 //layer=li \
 //thickness=0.1 //x=14.92 //y=0.62 //x2=14.92 //y2=0.535
r491 (  164 345 ) resistor r=41.4118 //w=0.187 //l=0.605 //layer=li \
 //thickness=0.1 //x=14.92 //y=0.62 //x2=14.92 //y2=1.225
r492 (  163 345 ) resistor r=5.4201 //w=0.17 //l=0.085 //layer=li \
 //thickness=0.1 //x=14.92 //y=0.45 //x2=14.92 //y2=0.535
r493 (  162 293 ) resistor r=5.03728 //w=0.34 //l=0.17 //layer=li \
 //thickness=0.1 //x=14.92 //y=0.17 //x2=14.92 //y2=0
r494 (  162 163 ) resistor r=19.1658 //w=0.187 //l=0.28 //layer=li \
 //thickness=0.1 //x=14.92 //y=0.17 //x2=14.92 //y2=0.45
r495 (  161 345 ) resistor r=5.4201 //w=0.17 //l=0.085 //layer=li \
 //thickness=0.1 //x=14.52 //y=0.535 //x2=14.435 //y2=0.535
r496 (  160 345 ) resistor r=1.40859 //w=0.34 //l=0.085 //layer=li \
 //thickness=0.1 //x=14.835 //y=0.535 //x2=14.92 //y2=0.535
r497 (  160 161 ) resistor r=21.5615 //w=0.187 //l=0.315 //layer=li \
 //thickness=0.1 //x=14.835 //y=0.535 //x2=14.52 //y2=0.535
r498 (  159 345 ) resistor r=1.40859 //w=0.34 //l=0.085 //layer=li \
 //thickness=0.1 //x=14.435 //y=0.45 //x2=14.435 //y2=0.535
r499 (  158 290 ) resistor r=5.03728 //w=0.34 //l=0.17 //layer=li \
 //thickness=0.1 //x=14.435 //y=0.17 //x2=14.435 //y2=0
r500 (  158 159 ) resistor r=19.1658 //w=0.187 //l=0.28 //layer=li \
 //thickness=0.1 //x=14.435 //y=0.17 //x2=14.435 //y2=0.45
r501 (  157 345 ) resistor r=1.40859 //w=0.34 //l=0.085 //layer=li \
 //thickness=0.1 //x=14.035 //y=0.535 //x2=13.95 //y2=0.535
r502 (  156 345 ) resistor r=5.4201 //w=0.17 //l=0.085 //layer=li \
 //thickness=0.1 //x=14.35 //y=0.535 //x2=14.435 //y2=0.535
r503 (  156 157 ) resistor r=21.5615 //w=0.187 //l=0.315 //layer=li \
 //thickness=0.1 //x=14.35 //y=0.535 //x2=14.035 //y2=0.535
r504 (  152 345 ) resistor r=5.4201 //w=0.17 //l=0.085 //layer=li \
 //thickness=0.1 //x=13.95 //y=0.62 //x2=13.95 //y2=0.535
r505 (  152 345 ) resistor r=41.4118 //w=0.187 //l=0.605 //layer=li \
 //thickness=0.1 //x=13.95 //y=0.62 //x2=13.95 //y2=1.225
r506 (  151 345 ) resistor r=5.4201 //w=0.17 //l=0.085 //layer=li \
 //thickness=0.1 //x=13.95 //y=0.45 //x2=13.95 //y2=0.535
r507 (  150 289 ) resistor r=5.03728 //w=0.34 //l=0.17 //layer=li \
 //thickness=0.1 //x=13.95 //y=0.17 //x2=13.95 //y2=0
r508 (  150 151 ) resistor r=19.1658 //w=0.187 //l=0.28 //layer=li \
 //thickness=0.1 //x=13.95 //y=0.17 //x2=13.95 //y2=0.45
r509 (  147 288 ) resistor r=5.4201 //w=0.34 //l=0.17 //layer=li \
 //thickness=0.1 //x=13.49 //y=0 //x2=13.32 //y2=0
r510 (  147 149 ) resistor r=7.17087 //w=0.357 //l=0.2 //layer=li \
 //thickness=0.1 //x=13.49 //y=0 //x2=13.69 //y2=0
r511 (  146 289 ) resistor r=3.04762 //w=0.357 //l=0.085 //layer=li \
 //thickness=0.1 //x=13.865 //y=0 //x2=13.95 //y2=0
r512 (  146 149 ) resistor r=6.27451 //w=0.357 //l=0.175 //layer=li \
 //thickness=0.1 //x=13.865 //y=0 //x2=13.69 //y2=0
r513 (  141 287 ) resistor r=2.94794 //w=0.34 //l=0.085 //layer=li \
 //thickness=0.1 //x=11.255 //y=0 //x2=11.17 //y2=0
r514 (  141 143 ) resistor r=34.2409 //w=0.357 //l=0.955 //layer=li \
 //thickness=0.1 //x=11.255 //y=0 //x2=12.21 //y2=0
r515 (  140 288 ) resistor r=5.4201 //w=0.34 //l=0.17 //layer=li \
 //thickness=0.1 //x=13.15 //y=0 //x2=13.32 //y2=0
r516 (  140 143 ) resistor r=33.7031 //w=0.357 //l=0.94 //layer=li \
 //thickness=0.1 //x=13.15 //y=0 //x2=12.21 //y2=0
r517 (  136 287 ) resistor r=4.11603 //w=0.68 //l=0.17 //layer=li \
 //thickness=0.1 //x=11.17 //y=0.17 //x2=11.17 //y2=0
r518 (  136 344 ) resistor r=53.7326 //w=0.187 //l=0.785 //layer=li \
 //thickness=0.1 //x=11.17 //y=0.17 //x2=11.17 //y2=0.955
r519 (  135 285 ) resistor r=5.4201 //w=0.34 //l=0.17 //layer=li \
 //thickness=0.1 //x=10.16 //y=0 //x2=9.99 //y2=0
r520 (  134 287 ) resistor r=2.94794 //w=0.34 //l=0.085 //layer=li \
 //thickness=0.1 //x=11.085 //y=0 //x2=11.17 //y2=0
r521 (  134 135 ) resistor r=33.1653 //w=0.357 //l=0.925 //layer=li \
 //thickness=0.1 //x=11.085 //y=0 //x2=10.16 //y2=0
r522 (  129 278 ) resistor r=3.04762 //w=0.357 //l=0.085 //layer=li \
 //thickness=0.1 //x=9.455 //y=0 //x2=9.37 //y2=0
r523 (  129 131 ) resistor r=5.91597 //w=0.357 //l=0.165 //layer=li \
 //thickness=0.1 //x=9.455 //y=0 //x2=9.62 //y2=0
r524 (  128 285 ) resistor r=5.4201 //w=0.34 //l=0.17 //layer=li \
 //thickness=0.1 //x=9.82 //y=0 //x2=9.99 //y2=0
r525 (  128 131 ) resistor r=7.17087 //w=0.357 //l=0.2 //layer=li \
 //thickness=0.1 //x=9.82 //y=0 //x2=9.62 //y2=0
r526 (  124 343 ) resistor r=5.4201 //w=0.17 //l=0.085 //layer=li \
 //thickness=0.1 //x=9.37 //y=0.62 //x2=9.37 //y2=0.535
r527 (  124 343 ) resistor r=41.4118 //w=0.187 //l=0.605 //layer=li \
 //thickness=0.1 //x=9.37 //y=0.62 //x2=9.37 //y2=1.225
r528 (  123 343 ) resistor r=5.4201 //w=0.17 //l=0.085 //layer=li \
 //thickness=0.1 //x=9.37 //y=0.45 //x2=9.37 //y2=0.535
r529 (  122 278 ) resistor r=5.03728 //w=0.34 //l=0.17 //layer=li \
 //thickness=0.1 //x=9.37 //y=0.17 //x2=9.37 //y2=0
r530 (  122 123 ) resistor r=19.1658 //w=0.187 //l=0.28 //layer=li \
 //thickness=0.1 //x=9.37 //y=0.17 //x2=9.37 //y2=0.45
r531 (  121 343 ) resistor r=5.4201 //w=0.17 //l=0.085 //layer=li \
 //thickness=0.1 //x=8.97 //y=0.535 //x2=8.885 //y2=0.535
r532 (  120 343 ) resistor r=1.40859 //w=0.34 //l=0.085 //layer=li \
 //thickness=0.1 //x=9.285 //y=0.535 //x2=9.37 //y2=0.535
r533 (  120 121 ) resistor r=21.5615 //w=0.187 //l=0.315 //layer=li \
 //thickness=0.1 //x=9.285 //y=0.535 //x2=8.97 //y2=0.535
r534 (  119 343 ) resistor r=1.40859 //w=0.34 //l=0.085 //layer=li \
 //thickness=0.1 //x=8.885 //y=0.45 //x2=8.885 //y2=0.535
r535 (  118 277 ) resistor r=5.03728 //w=0.34 //l=0.17 //layer=li \
 //thickness=0.1 //x=8.885 //y=0.17 //x2=8.885 //y2=0
r536 (  118 119 ) resistor r=19.1658 //w=0.187 //l=0.28 //layer=li \
 //thickness=0.1 //x=8.885 //y=0.17 //x2=8.885 //y2=0.45
r537 (  117 343 ) resistor r=1.40859 //w=0.34 //l=0.085 //layer=li \
 //thickness=0.1 //x=8.485 //y=0.535 //x2=8.4 //y2=0.535
r538 (  116 343 ) resistor r=5.4201 //w=0.17 //l=0.085 //layer=li \
 //thickness=0.1 //x=8.8 //y=0.535 //x2=8.885 //y2=0.535
r539 (  116 117 ) resistor r=21.5615 //w=0.187 //l=0.315 //layer=li \
 //thickness=0.1 //x=8.8 //y=0.535 //x2=8.485 //y2=0.535
r540 (  112 343 ) resistor r=5.4201 //w=0.17 //l=0.085 //layer=li \
 //thickness=0.1 //x=8.4 //y=0.62 //x2=8.4 //y2=0.535
r541 (  112 343 ) resistor r=41.4118 //w=0.187 //l=0.605 //layer=li \
 //thickness=0.1 //x=8.4 //y=0.62 //x2=8.4 //y2=1.225
r542 (  111 343 ) resistor r=5.4201 //w=0.17 //l=0.085 //layer=li \
 //thickness=0.1 //x=8.4 //y=0.45 //x2=8.4 //y2=0.535
r543 (  110 274 ) resistor r=5.03728 //w=0.34 //l=0.17 //layer=li \
 //thickness=0.1 //x=8.4 //y=0.17 //x2=8.4 //y2=0
r544 (  110 111 ) resistor r=19.1658 //w=0.187 //l=0.28 //layer=li \
 //thickness=0.1 //x=8.4 //y=0.17 //x2=8.4 //y2=0.45
r545 (  109 273 ) resistor r=5.4201 //w=0.34 //l=0.17 //layer=li \
 //thickness=0.1 //x=7.94 //y=0 //x2=7.77 //y2=0
r546 (  108 274 ) resistor r=3.04762 //w=0.357 //l=0.085 //layer=li \
 //thickness=0.1 //x=8.315 //y=0 //x2=8.4 //y2=0
r547 (  108 109 ) resistor r=13.4454 //w=0.357 //l=0.375 //layer=li \
 //thickness=0.1 //x=8.315 //y=0 //x2=7.94 //y2=0
r548 (  103 105 ) resistor r=39.7983 //w=0.357 //l=1.11 //layer=li \
 //thickness=0.1 //x=5.92 //y=0 //x2=7.03 //y2=0
r549 (  101 272 ) resistor r=2.94794 //w=0.34 //l=0.085 //layer=li \
 //thickness=0.1 //x=5.705 //y=0 //x2=5.62 //y2=0
r550 (  101 103 ) resistor r=7.70868 //w=0.357 //l=0.215 //layer=li \
 //thickness=0.1 //x=5.705 //y=0 //x2=5.92 //y2=0
r551 (  100 273 ) resistor r=5.4201 //w=0.34 //l=0.17 //layer=li \
 //thickness=0.1 //x=7.6 //y=0 //x2=7.77 //y2=0
r552 (  100 105 ) resistor r=20.437 //w=0.357 //l=0.57 //layer=li \
 //thickness=0.1 //x=7.6 //y=0 //x2=7.03 //y2=0
r553 (  96 272 ) resistor r=4.11603 //w=0.68 //l=0.17 //layer=li \
 //thickness=0.1 //x=5.62 //y=0.17 //x2=5.62 //y2=0
r554 (  96 342 ) resistor r=53.7326 //w=0.187 //l=0.785 //layer=li \
 //thickness=0.1 //x=5.62 //y=0.17 //x2=5.62 //y2=0.955
r555 (  93 271 ) resistor r=5.4201 //w=0.34 //l=0.17 //layer=li \
 //thickness=0.1 //x=4.61 //y=0 //x2=4.44 //y2=0
r556 (  93 95 ) resistor r=7.17087 //w=0.357 //l=0.2 //layer=li \
 //thickness=0.1 //x=4.61 //y=0 //x2=4.81 //y2=0
r557 (  92 272 ) resistor r=2.94794 //w=0.34 //l=0.085 //layer=li \
 //thickness=0.1 //x=5.535 //y=0 //x2=5.62 //y2=0
r558 (  92 95 ) resistor r=25.9944 //w=0.357 //l=0.725 //layer=li \
 //thickness=0.1 //x=5.535 //y=0 //x2=4.81 //y2=0
r559 (  89 264 ) resistor r=3.04762 //w=0.357 //l=0.085 //layer=li \
 //thickness=0.1 //x=3.905 //y=0 //x2=3.82 //y2=0
r560 (  88 271 ) resistor r=5.4201 //w=0.34 //l=0.17 //layer=li \
 //thickness=0.1 //x=4.27 //y=0 //x2=4.44 //y2=0
r561 (  88 89 ) resistor r=13.0868 //w=0.357 //l=0.365 //layer=li \
 //thickness=0.1 //x=4.27 //y=0 //x2=3.905 //y2=0
r562 (  84 341 ) resistor r=5.4201 //w=0.17 //l=0.085 //layer=li \
 //thickness=0.1 //x=3.82 //y=0.62 //x2=3.82 //y2=0.535
r563 (  84 341 ) resistor r=41.4118 //w=0.187 //l=0.605 //layer=li \
 //thickness=0.1 //x=3.82 //y=0.62 //x2=3.82 //y2=1.225
r564 (  83 341 ) resistor r=5.4201 //w=0.17 //l=0.085 //layer=li \
 //thickness=0.1 //x=3.82 //y=0.45 //x2=3.82 //y2=0.535
r565 (  82 264 ) resistor r=5.03728 //w=0.34 //l=0.17 //layer=li \
 //thickness=0.1 //x=3.82 //y=0.17 //x2=3.82 //y2=0
r566 (  82 83 ) resistor r=19.1658 //w=0.187 //l=0.28 //layer=li \
 //thickness=0.1 //x=3.82 //y=0.17 //x2=3.82 //y2=0.45
r567 (  81 341 ) resistor r=5.4201 //w=0.17 //l=0.085 //layer=li \
 //thickness=0.1 //x=3.42 //y=0.535 //x2=3.335 //y2=0.535
r568 (  80 341 ) resistor r=1.40859 //w=0.34 //l=0.085 //layer=li \
 //thickness=0.1 //x=3.735 //y=0.535 //x2=3.82 //y2=0.535
r569 (  80 81 ) resistor r=21.5615 //w=0.187 //l=0.315 //layer=li \
 //thickness=0.1 //x=3.735 //y=0.535 //x2=3.42 //y2=0.535
r570 (  79 341 ) resistor r=1.40859 //w=0.34 //l=0.085 //layer=li \
 //thickness=0.1 //x=3.335 //y=0.45 //x2=3.335 //y2=0.535
r571 (  78 263 ) resistor r=5.03728 //w=0.34 //l=0.17 //layer=li \
 //thickness=0.1 //x=3.335 //y=0.17 //x2=3.335 //y2=0
r572 (  78 79 ) resistor r=19.1658 //w=0.187 //l=0.28 //layer=li \
 //thickness=0.1 //x=3.335 //y=0.17 //x2=3.335 //y2=0.45
r573 (  77 341 ) resistor r=1.40859 //w=0.34 //l=0.085 //layer=li \
 //thickness=0.1 //x=2.935 //y=0.535 //x2=2.85 //y2=0.535
r574 (  76 341 ) resistor r=5.4201 //w=0.17 //l=0.085 //layer=li \
 //thickness=0.1 //x=3.25 //y=0.535 //x2=3.335 //y2=0.535
r575 (  76 77 ) resistor r=21.5615 //w=0.187 //l=0.315 //layer=li \
 //thickness=0.1 //x=3.25 //y=0.535 //x2=2.935 //y2=0.535
r576 (  72 341 ) resistor r=5.4201 //w=0.17 //l=0.085 //layer=li \
 //thickness=0.1 //x=2.85 //y=0.62 //x2=2.85 //y2=0.535
r577 (  72 341 ) resistor r=41.4118 //w=0.187 //l=0.605 //layer=li \
 //thickness=0.1 //x=2.85 //y=0.62 //x2=2.85 //y2=1.225
r578 (  71 341 ) resistor r=5.4201 //w=0.17 //l=0.085 //layer=li \
 //thickness=0.1 //x=2.85 //y=0.45 //x2=2.85 //y2=0.535
r579 (  70 260 ) resistor r=5.03728 //w=0.34 //l=0.17 //layer=li \
 //thickness=0.1 //x=2.85 //y=0.17 //x2=2.85 //y2=0
r580 (  70 71 ) resistor r=19.1658 //w=0.187 //l=0.28 //layer=li \
 //thickness=0.1 //x=2.85 //y=0.17 //x2=2.85 //y2=0.45
r581 (  69 259 ) resistor r=5.4201 //w=0.34 //l=0.17 //layer=li \
 //thickness=0.1 //x=2.39 //y=0 //x2=2.22 //y2=0
r582 (  68 260 ) resistor r=3.04762 //w=0.357 //l=0.085 //layer=li \
 //thickness=0.1 //x=2.765 //y=0 //x2=2.85 //y2=0
r583 (  68 69 ) resistor r=13.4454 //w=0.357 //l=0.375 //layer=li \
 //thickness=0.1 //x=2.765 //y=0 //x2=2.39 //y2=0
r584 (  63 252 ) resistor r=3.04762 //w=0.357 //l=0.085 //layer=li \
 //thickness=0.1 //x=1.685 //y=0 //x2=1.6 //y2=0
r585 (  63 65 ) resistor r=5.91597 //w=0.357 //l=0.165 //layer=li \
 //thickness=0.1 //x=1.685 //y=0 //x2=1.85 //y2=0
r586 (  62 259 ) resistor r=5.4201 //w=0.34 //l=0.17 //layer=li \
 //thickness=0.1 //x=2.05 //y=0 //x2=2.22 //y2=0
r587 (  62 65 ) resistor r=7.17087 //w=0.357 //l=0.2 //layer=li \
 //thickness=0.1 //x=2.05 //y=0 //x2=1.85 //y2=0
r588 (  58 340 ) resistor r=5.4201 //w=0.17 //l=0.085 //layer=li \
 //thickness=0.1 //x=1.6 //y=0.62 //x2=1.6 //y2=0.535