// File: DLATCH.spi.pex
// Created: Tue Oct 15 15:48:26 2024
// Program "Calibre xRC"
// Version "v2023.2_27.15"
// Nominal Temperature: 30C
// Circuit Temperature: 30C
// 
simulator lang=spectre
subckt PM_DLATCH\%GND ( 1 35 47 51 54 65 71 77 82 87 91 94 99 103 111 119 122 \
 127 131 153 157 165 169 177 181 189 193 201 205 217 228 231 243 245 257 277 \
 288 299 300 301 302 303 304 305 )
c278 ( 305 0 ) capacitor c=0.0706776f //x=17.21 //y=0.365
c279 ( 304 0 ) capacitor c=0.0706539f //x=13.88 //y=0.365
c280 ( 303 0 ) capacitor c=0.0578714f //x=11.595 //y=0.37
c281 ( 302 0 ) capacitor c=0.0207878f //x=8.76 //y=0.865
c282 ( 301 0 ) capacitor c=0.0572693f //x=6.045 //y=0.37
c283 ( 300 0 ) capacitor c=0.0208124f //x=3.21 //y=0.865
c284 ( 299 0 ) capacitor c=0.0589275f //x=0.495 //y=0.37
c285 ( 288 0 ) capacitor c=0.270488f //x=19.285 //y=0
c286 ( 277 0 ) capacitor c=0.10534f //x=16.65 //y=0
c287 ( 257 0 ) capacitor c=0.103812f //x=13.32 //y=0
c288 ( 245 0 ) capacitor c=0.10149f //x=11.1 //y=0
c289 ( 244 0 ) capacitor c=0.00440095f //x=8.95 //y=0
c290 ( 243 0 ) capacitor c=0.102231f //x=7.77 //y=0
c291 ( 231 0 ) capacitor c=0.10097f //x=5.55 //y=0
c292 ( 230 0 ) capacitor c=0.00440095f //x=3.33 //y=0
c293 ( 228 0 ) capacitor c=0.103282f //x=2.22 //y=0
c294 ( 217 0 ) capacitor c=0.192978f //x=0.63 //y=0
c295 ( 208 0 ) capacitor c=0.00609805f //x=19.285 //y=0.445
c296 ( 205 0 ) capacitor c=0.00505637f //x=19.2 //y=0.53
c297 ( 204 0 ) capacitor c=0.00468234f //x=18.8 //y=0.445
c298 ( 201 0 ) capacitor c=0.00537084f //x=18.715 //y=0.53
c299 ( 196 0 ) capacitor c=0.00468234f //x=18.315 //y=0.445
c300 ( 193 0 ) capacitor c=0.00537084f //x=18.23 //y=0.53
c301 ( 192 0 ) capacitor c=0.00468234f //x=17.83 //y=0.445
c302 ( 189 0 ) capacitor c=0.00634502f //x=17.745 //y=0.53
c303 ( 184 0 ) capacitor c=0.00609805f //x=17.345 //y=0.445
c304 ( 181 0 ) capacitor c=0.0195795f //x=17.26 //y=0
c305 ( 178 0 ) capacitor c=0.0659516f //x=16.04 //y=0
c306 ( 177 0 ) capacitor c=0.0195795f //x=16.48 //y=0
c307 ( 172 0 ) capacitor c=0.00609805f //x=15.955 //y=0.445
c308 ( 169 0 ) capacitor c=0.00505127f //x=15.87 //y=0.53
c309 ( 168 0 ) capacitor c=0.00468234f //x=15.47 //y=0.445
c310 ( 165 0 ) capacitor c=0.00537002f //x=15.385 //y=0.53
c311 ( 160 0 ) capacitor c=0.00468234f //x=14.985 //y=0.445
c312 ( 157 0 ) capacitor c=0.00556167f //x=14.9 //y=0.53
c313 ( 156 0 ) capacitor c=0.00468234f //x=14.5 //y=0.445
c314 ( 153 0 ) capacitor c=0.00642891f //x=14.415 //y=0.53
c315 ( 148 0 ) capacitor c=0.00609805f //x=14.015 //y=0.445
c316 ( 143 0 ) capacitor c=0.0227441f //x=13.93 //y=0
c317 ( 140 0 ) capacitor c=0.0360689f //x=12.785 //y=0
c318 ( 139 0 ) capacitor c=0.0184787f //x=13.15 //y=0
c319 ( 134 0 ) capacitor c=0.00583665f //x=12.7 //y=0.45
c320 ( 131 0 ) capacitor c=0.00536917f //x=12.615 //y=0.535
c321 ( 130 0 ) capacitor c=0.00479856f //x=12.215 //y=0.45
c322 ( 127 0 ) capacitor c=0.00640467f //x=12.13 //y=0.535
c323 ( 122 0 ) capacitor c=0.00588377f //x=11.73 //y=0.45
c324 ( 119 0 ) capacitor c=0.0164879f //x=11.645 //y=0
c325 ( 111 0 ) capacitor c=0.0720403f //x=10.93 //y=0
c326 ( 103 0 ) capacitor c=0.0389171f //x=8.865 //y=0
c327 ( 100 0 ) capacitor c=0.0360881f //x=7.235 //y=0
c328 ( 99 0 ) capacitor c=0.0160123f //x=7.6 //y=0
c329 ( 94 0 ) capacitor c=0.00583665f //x=7.15 //y=0.45
c330 ( 91 0 ) capacitor c=0.00531808f //x=7.065 //y=0.535
c331 ( 90 0 ) capacitor c=0.00479856f //x=6.665 //y=0.45
c332 ( 87 0 ) capacitor c=0.006266f //x=6.58 //y=0.535
c333 ( 82 0 ) capacitor c=0.00588377f //x=6.18 //y=0.45
c334 ( 77 0 ) capacitor c=0.0164879f //x=6.095 //y=0
c335 ( 71 0 ) capacitor c=0.0722769f //x=5.38 //y=0
c336 ( 65 0 ) capacitor c=0.0426751f //x=3.315 //y=0
c337 ( 60 0 ) capacitor c=0.0360484f //x=1.685 //y=0
c338 ( 59 0 ) capacitor c=0.0184787f //x=2.05 //y=0
c339 ( 54 0 ) capacitor c=0.00583665f //x=1.6 //y=0.45
c340 ( 51 0 ) capacitor c=0.00539433f //x=1.515 //y=0.535
c341 ( 50 0 ) capacitor c=0.00479856f //x=1.115 //y=0.45
c342 ( 47 0 ) capacitor c=0.00707849f //x=1.03 //y=0.535
c343 ( 42 0 ) capacitor c=0.00592191f //x=0.63 //y=0.45
c344 ( 35 0 ) capacitor c=0.67826f //x=19.24 //y=0
r345 (  287 288 ) resistor r=1.61345 //w=0.357 //l=0.045 //layer=li \
 //thickness=0.1 //x=19.24 //y=0 //x2=19.285 //y2=0
r346 (  285 287 ) resistor r=15.7759 //w=0.357 //l=0.44 //layer=li \
 //thickness=0.1 //x=18.8 //y=0 //x2=19.24 //y2=0
r347 (  284 285 ) resistor r=10.7563 //w=0.357 //l=0.3 //layer=li \
 //thickness=0.1 //x=18.5 //y=0 //x2=18.8 //y2=0
r348 (  282 284 ) resistor r=6.63305 //w=0.357 //l=0.185 //layer=li \
 //thickness=0.1 //x=18.315 //y=0 //x2=18.5 //y2=0
r349 (  281 282 ) resistor r=17.3894 //w=0.357 //l=0.485 //layer=li \
 //thickness=0.1 //x=17.83 //y=0 //x2=18.315 //y2=0
r350 (  280 281 ) resistor r=15.7759 //w=0.357 //l=0.44 //layer=li \
 //thickness=0.1 //x=17.39 //y=0 //x2=17.83 //y2=0
r351 (  278 280 ) resistor r=1.61345 //w=0.357 //l=0.045 //layer=li \
 //thickness=0.1 //x=17.345 //y=0 //x2=17.39 //y2=0
r352 (  265 266 ) resistor r=1.61345 //w=0.357 //l=0.045 //layer=li \
 //thickness=0.1 //x=15.91 //y=0 //x2=15.955 //y2=0
r353 (  263 265 ) resistor r=15.7759 //w=0.357 //l=0.44 //layer=li \
 //thickness=0.1 //x=15.47 //y=0 //x2=15.91 //y2=0
r354 (  262 263 ) resistor r=17.3894 //w=0.357 //l=0.485 //layer=li \
 //thickness=0.1 //x=14.985 //y=0 //x2=15.47 //y2=0
r355 (  261 262 ) resistor r=6.63305 //w=0.357 //l=0.185 //layer=li \
 //thickness=0.1 //x=14.8 //y=0 //x2=14.985 //y2=0
r356 (  259 261 ) resistor r=10.7563 //w=0.357 //l=0.3 //layer=li \
 //thickness=0.1 //x=14.5 //y=0 //x2=14.8 //y2=0
r357 (  258 259 ) resistor r=17.3894 //w=0.357 //l=0.485 //layer=li \
 //thickness=0.1 //x=14.015 //y=0 //x2=14.5 //y2=0
r358 (  249 250 ) resistor r=17.3894 //w=0.357 //l=0.485 //layer=li \
 //thickness=0.1 //x=12.215 //y=0 //x2=12.7 //y2=0
r359 (  248 249 ) resistor r=0.179272 //w=0.357 //l=0.005 //layer=li \
 //thickness=0.1 //x=12.21 //y=0 //x2=12.215 //y2=0
r360 (  246 248 ) resistor r=17.2101 //w=0.357 //l=0.48 //layer=li \
 //thickness=0.1 //x=11.73 //y=0 //x2=12.21 //y2=0
r361 (  235 236 ) resistor r=4.30252 //w=0.357 //l=0.12 //layer=li \
 //thickness=0.1 //x=7.03 //y=0 //x2=7.15 //y2=0
r362 (  233 235 ) resistor r=13.0868 //w=0.357 //l=0.365 //layer=li \
 //thickness=0.1 //x=6.665 //y=0 //x2=7.03 //y2=0
r363 (  232 233 ) resistor r=17.3894 //w=0.357 //l=0.485 //layer=li \
 //thickness=0.1 //x=6.18 //y=0 //x2=6.665 //y2=0
r364 (  220 221 ) resistor r=17.3894 //w=0.357 //l=0.485 //layer=li \
 //thickness=0.1 //x=1.115 //y=0 //x2=1.6 //y2=0
r365 (  219 220 ) resistor r=13.4454 //w=0.357 //l=0.375 //layer=li \
 //thickness=0.1 //x=0.74 //y=0 //x2=1.115 //y2=0
r366 (  217 219 ) resistor r=3.94398 //w=0.357 //l=0.11 //layer=li \
 //thickness=0.1 //x=0.63 //y=0 //x2=0.74 //y2=0
r367 (  209 305 ) resistor r=5.4201 //w=0.17 //l=0.085 //layer=li \
 //thickness=0.1 //x=19.285 //y=0.615 //x2=19.285 //y2=0.53
r368 (  209 305 ) resistor r=18.139 //w=0.187 //l=0.265 //layer=li \
 //thickness=0.1 //x=19.285 //y=0.615 //x2=19.285 //y2=0.88
r369 (  208 305 ) resistor r=5.4201 //w=0.17 //l=0.085 //layer=li \
 //thickness=0.1 //x=19.285 //y=0.445 //x2=19.285 //y2=0.53
r370 (  207 288 ) resistor r=5.03728 //w=0.34 //l=0.17 //layer=li \
 //thickness=0.1 //x=19.285 //y=0.17 //x2=19.285 //y2=0
r371 (  207 208 ) resistor r=18.8235 //w=0.187 //l=0.275 //layer=li \
 //thickness=0.1 //x=19.285 //y=0.17 //x2=19.285 //y2=0.445
r372 (  206 305 ) resistor r=5.4201 //w=0.17 //l=0.085 //layer=li \
 //thickness=0.1 //x=18.885 //y=0.53 //x2=18.8 //y2=0.53
r373 (  205 305 ) resistor r=1.40859 //w=0.34 //l=0.085 //layer=li \
 //thickness=0.1 //x=19.2 //y=0.53 //x2=19.285 //y2=0.53
r374 (  205 206 ) resistor r=21.5615 //w=0.187 //l=0.315 //layer=li \
 //thickness=0.1 //x=19.2 //y=0.53 //x2=18.885 //y2=0.53
r375 (  204 305 ) resistor r=1.40859 //w=0.34 //l=0.085 //layer=li \
 //thickness=0.1 //x=18.8 //y=0.445 //x2=18.8 //y2=0.53
r376 (  203 285 ) resistor r=5.03728 //w=0.34 //l=0.17 //layer=li \
 //thickness=0.1 //x=18.8 //y=0.17 //x2=18.8 //y2=0
r377 (  203 204 ) resistor r=18.8235 //w=0.187 //l=0.275 //layer=li \
 //thickness=0.1 //x=18.8 //y=0.17 //x2=18.8 //y2=0.445
r378 (  202 305 ) resistor r=6.4 //w=0.17 //l=0.085 //layer=li //thickness=0.1 \
 //x=18.4 //y=0.53 //x2=18.315 //y2=0.53
r379 (  201 305 ) resistor r=5.4201 //w=0.17 //l=0.085 //layer=li \
 //thickness=0.1 //x=18.715 //y=0.53 //x2=18.8 //y2=0.53
r380 (  201 202 ) resistor r=21.5615 //w=0.187 //l=0.315 //layer=li \
 //thickness=0.1 //x=18.715 //y=0.53 //x2=18.4 //y2=0.53
r381 (  197 305 ) resistor r=6.4 //w=0.17 //l=0.085 //layer=li //thickness=0.1 \
 //x=18.315 //y=0.615 //x2=18.315 //y2=0.53
r382 (  197 305 ) resistor r=18.139 //w=0.187 //l=0.265 //layer=li \
 //thickness=0.1 //x=18.315 //y=0.615 //x2=18.315 //y2=0.88
r383 (  196 305 ) resistor r=6.4 //w=0.17 //l=0.085 //layer=li //thickness=0.1 \
 //x=18.315 //y=0.445 //x2=18.315 //y2=0.53
r384 (  195 282 ) resistor r=5.03728 //w=0.34 //l=0.17 //layer=li \
 //thickness=0.1 //x=18.315 //y=0.17 //x2=18.315 //y2=0
r385 (  195 196 ) resistor r=18.8235 //w=0.187 //l=0.275 //layer=li \
 //thickness=0.1 //x=18.315 //y=0.17 //x2=18.315 //y2=0.445
r386 (  194 305 ) resistor r=5.4201 //w=0.17 //l=0.085 //layer=li \
 //thickness=0.1 //x=17.915 //y=0.53 //x2=17.83 //y2=0.53
r387 (  193 305 ) resistor r=6.4 //w=0.17 //l=0.085 //layer=li //thickness=0.1 \
 //x=18.23 //y=0.53 //x2=18.315 //y2=0.53
r388 (  193 194 ) resistor r=21.5615 //w=0.187 //l=0.315 //layer=li \
 //thickness=0.1 //x=18.23 //y=0.53 //x2=17.915 //y2=0.53
r389 (  192 305 ) resistor r=1.40859 //w=0.34 //l=0.085 //layer=li \
 //thickness=0.1 //x=17.83 //y=0.445 //x2=17.83 //y2=0.53
r390 (  191 281 ) resistor r=5.03728 //w=0.34 //l=0.17 //layer=li \
 //thickness=0.1 //x=17.83 //y=0.17 //x2=17.83 //y2=0
r391 (  191 192 ) resistor r=18.8235 //w=0.187 //l=0.275 //layer=li \
 //thickness=0.1 //x=17.83 //y=0.17 //x2=17.83 //y2=0.445
r392 (  190 305 ) resistor r=1.40859 //w=0.34 //l=0.085 //layer=li \
 //thickness=0.1 //x=17.43 //y=0.53 //x2=17.345 //y2=0.53
r393 (  189 305 ) resistor r=5.4201 //w=0.17 //l=0.085 //layer=li \
 //thickness=0.1 //x=17.745 //y=0.53 //x2=17.83 //y2=0.53
r394 (  189 190 ) resistor r=21.5615 //w=0.187 //l=0.315 //layer=li \
 //thickness=0.1 //x=17.745 //y=0.53 //x2=17.43 //y2=0.53
r395 (  185 305 ) resistor r=5.4201 //w=0.17 //l=0.085 //layer=li \
 //thickness=0.1 //x=17.345 //y=0.615 //x2=17.345 //y2=0.53
r396 (  185 305 ) resistor r=41.4118 //w=0.187 //l=0.605 //layer=li \
 //thickness=0.1 //x=17.345 //y=0.615 //x2=17.345 //y2=1.22
r397 (  184 305 ) resistor r=5.4201 //w=0.17 //l=0.085 //layer=li \
 //thickness=0.1 //x=17.345 //y=0.445 //x2=17.345 //y2=0.53
r398 (  183 278 ) resistor r=5.03728 //w=0.34 //l=0.17 //layer=li \
 //thickness=0.1 //x=17.345 //y=0.17 //x2=17.345 //y2=0
r399 (  183 184 ) resistor r=18.8235 //w=0.187 //l=0.275 //layer=li \
 //thickness=0.1 //x=17.345 //y=0.17 //x2=17.345 //y2=0.445
r400 (  182 277 ) resistor r=5.4201 //w=0.34 //l=0.17 //layer=li \
 //thickness=0.1 //x=16.82 //y=0 //x2=16.65 //y2=0
r401 (  181 278 ) resistor r=3.04762 //w=0.357 //l=0.085 //layer=li \
 //thickness=0.1 //x=17.26 //y=0 //x2=17.345 //y2=0
r402 (  181 182 ) resistor r=15.7759 //w=0.357 //l=0.44 //layer=li \
 //thickness=0.1 //x=17.26 //y=0 //x2=16.82 //y2=0
r403 (  178 266 ) resistor r=3.04762 //w=0.357 //l=0.085 //layer=li \
 //thickness=0.1 //x=16.04 //y=0 //x2=15.955 //y2=0
r404 (  177 277 ) resistor r=5.4201 //w=0.34 //l=0.17 //layer=li \
 //thickness=0.1 //x=16.48 //y=0 //x2=16.65 //y2=0
r405 (  177 178 ) resistor r=15.7759 //w=0.357 //l=0.44 //layer=li \
 //thickness=0.1 //x=16.48 //y=0 //x2=16.04 //y2=0
r406 (  173 304 ) resistor r=5.4201 //w=0.17 //l=0.085 //layer=li \
 //thickness=0.1 //x=15.955 //y=0.615 //x2=15.955 //y2=0.53
r407 (  173 304 ) resistor r=18.139 //w=0.187 //l=0.265 //layer=li \
 //thickness=0.1 //x=15.955 //y=0.615 //x2=15.955 //y2=0.88
r408 (  172 304 ) resistor r=5.4201 //w=0.17 //l=0.085 //layer=li \
 //thickness=0.1 //x=15.955 //y=0.445 //x2=15.955 //y2=0.53
r409 (  171 266 ) resistor r=5.03728 //w=0.34 //l=0.17 //layer=li \
 //thickness=0.1 //x=15.955 //y=0.17 //x2=15.955 //y2=0
r410 (  171 172 ) resistor r=18.8235 //w=0.187 //l=0.275 //layer=li \
 //thickness=0.1 //x=15.955 //y=0.17 //x2=15.955 //y2=0.445
r411 (  170 304 ) resistor r=5.4201 //w=0.17 //l=0.085 //layer=li \
 //thickness=0.1 //x=15.555 //y=0.53 //x2=15.47 //y2=0.53
r412 (  169 304 ) resistor r=1.40859 //w=0.34 //l=0.085 //layer=li \
 //thickness=0.1 //x=15.87 //y=0.53 //x2=15.955 //y2=0.53
r413 (  169 170 ) resistor r=21.5615 //w=0.187 //l=0.315 //layer=li \
 //thickness=0.1 //x=15.87 //y=0.53 //x2=15.555 //y2=0.53
r414 (  168 304 ) resistor r=1.40859 //w=0.34 //l=0.085 //layer=li \
 //thickness=0.1 //x=15.47 //y=0.445 //x2=15.47 //y2=0.53
r415 (  167 263 ) resistor r=5.03728 //w=0.34 //l=0.17 //layer=li \
 //thickness=0.1 //x=15.47 //y=0.17 //x2=15.47 //y2=0
r416 (  167 168 ) resistor r=18.8235 //w=0.187 //l=0.275 //layer=li \
 //thickness=0.1 //x=15.47 //y=0.17 //x2=15.47 //y2=0.445
r417 (  166 304 ) resistor r=6.4 //w=0.17 //l=0.085 //layer=li //thickness=0.1 \
 //x=15.07 //y=0.53 //x2=14.985 //y2=0.53
r418 (  165 304 ) resistor r=5.4201 //w=0.17 //l=0.085 //layer=li \
 //thickness=0.1 //x=15.385 //y=0.53 //x2=15.47 //y2=0.53
r419 (  165 166 ) resistor r=21.5615 //w=0.187 //l=0.315 //layer=li \
 //thickness=0.1 //x=15.385 //y=0.53 //x2=15.07 //y2=0.53
r420 (  161 304 ) resistor r=6.4 //w=0.17 //l=0.085 //layer=li //thickness=0.1 \
 //x=14.985 //y=0.615 //x2=14.985 //y2=0.53
r421 (  161 304 ) resistor r=18.139 //w=0.187 //l=0.265 //layer=li \
 //thickness=0.1 //x=14.985 //y=0.615 //x2=14.985 //y2=0.88
r422 (  160 304 ) resistor r=6.4 //w=0.17 //l=0.085 //layer=li //thickness=0.1 \
 //x=14.985 //y=0.445 //x2=14.985 //y2=0.53
r423 (  159 262 ) resistor r=5.03728 //w=0.34 //l=0.17 //layer=li \
 //thickness=0.1 //x=14.985 //y=0.17 //x2=14.985 //y2=0
r424 (  159 160 ) resistor r=18.8235 //w=0.187 //l=0.275 //layer=li \
 //thickness=0.1 //x=14.985 //y=0.17 //x2=14.985 //y2=0.445
r425 (  158 304 ) resistor r=5.4201 //w=0.17 //l=0.085 //layer=li \
 //thickness=0.1 //x=14.585 //y=0.53 //x2=14.5 //y2=0.53
r426 (  157 304 ) resistor r=6.4 //w=0.17 //l=0.085 //layer=li //thickness=0.1 \
 //x=14.9 //y=0.53 //x2=14.985 //y2=0.53
r427 (  157 158 ) resistor r=21.5615 //w=0.187 //l=0.315 //layer=li \
 //thickness=0.1 //x=14.9 //y=0.53 //x2=14.585 //y2=0.53
r428 (  156 304 ) resistor r=1.40859 //w=0.34 //l=0.085 //layer=li \
 //thickness=0.1 //x=14.5 //y=0.445 //x2=14.5 //y2=0.53
r429 (  155 259 ) resistor r=5.03728 //w=0.34 //l=0.17 //layer=li \
 //thickness=0.1 //x=14.5 //y=0.17 //x2=14.5 //y2=0
r430 (  155 156 ) resistor r=18.8235 //w=0.187 //l=0.275 //layer=li \
 //thickness=0.1 //x=14.5 //y=0.17 //x2=14.5 //y2=0.445
r431 (  154 304 ) resistor r=1.40859 //w=0.34 //l=0.085 //layer=li \
 //thickness=0.1 //x=14.1 //y=0.53 //x2=14.015 //y2=0.53
r432 (  153 304 ) resistor r=5.4201 //w=0.17 //l=0.085 //layer=li \
 //thickness=0.1 //x=14.415 //y=0.53 //x2=14.5 //y2=0.53
r433 (  153 154 ) resistor r=21.5615 //w=0.187 //l=0.315 //layer=li \
 //thickness=0.1 //x=14.415 //y=0.53 //x2=14.1 //y2=0.53
r434 (  149 304 ) resistor r=5.4201 //w=0.17 //l=0.085 //layer=li \
 //thickness=0.1 //x=14.015 //y=0.615 //x2=14.015 //y2=0.53
r435 (  149 304 ) resistor r=41.4118 //w=0.187 //l=0.605 //layer=li \
 //thickness=0.1 //x=14.015 //y=0.615 //x2=14.015 //y2=1.22
r436 (  148 304 ) resistor r=5.4201 //w=0.17 //l=0.085 //layer=li \
 //thickness=0.1 //x=14.015 //y=0.445 //x2=14.015 //y2=0.53
r437 (  147 258 ) resistor r=5.03728 //w=0.34 //l=0.17 //layer=li \
 //thickness=0.1 //x=14.015 //y=0.17 //x2=14.015 //y2=0
r438 (  147 148 ) resistor r=18.8235 //w=0.187 //l=0.275 //layer=li \
 //thickness=0.1 //x=14.015 //y=0.17 //x2=14.015 //y2=0.445
r439 (  144 257 ) resistor r=5.4201 //w=0.34 //l=0.17 //layer=li \
 //thickness=0.1 //x=13.49 //y=0 //x2=13.32 //y2=0
r440 (  144 146 ) resistor r=7.17087 //w=0.357 //l=0.2 //layer=li \
 //thickness=0.1 //x=13.49 //y=0 //x2=13.69 //y2=0
r441 (  143 258 ) resistor r=3.04762 //w=0.357 //l=0.085 //layer=li \
 //thickness=0.1 //x=13.93 //y=0 //x2=14.015 //y2=0
r442 (  143 146 ) resistor r=8.60504 //w=0.357 //l=0.24 //layer=li \
 //thickness=0.1 //x=13.93 //y=0 //x2=13.69 //y2=0
r443 (  140 250 ) resistor r=3.04762 //w=0.357 //l=0.085 //layer=li \
 //thickness=0.1 //x=12.785 //y=0 //x2=12.7 //y2=0
r444 (  139 257 ) resistor r=5.4201 //w=0.34 //l=0.17 //layer=li \
 //thickness=0.1 //x=13.15 //y=0 //x2=13.32 //y2=0
r445 (  139 140 ) resistor r=13.0868 //w=0.357 //l=0.365 //layer=li \
 //thickness=0.1 //x=13.15 //y=0 //x2=12.785 //y2=0
r446 (  135 303 ) resistor r=5.4201 //w=0.17 //l=0.085 //layer=li \
 //thickness=0.1 //x=12.7 //y=0.62 //x2=12.7 //y2=0.535
r447 (  135 303 ) resistor r=41.4118 //w=0.187 //l=0.605 //layer=li \
 //thickness=0.1 //x=12.7 //y=0.62 //x2=12.7 //y2=1.225
r448 (  134 303 ) resistor r=5.4201 //w=0.17 //l=0.085 //layer=li \
 //thickness=0.1 //x=12.7 //y=0.45 //x2=12.7 //y2=0.535
r449 (  133 250 ) resistor r=5.03728 //w=0.34 //l=0.17 //layer=li \
 //thickness=0.1 //x=12.7 //y=0.17 //x2=12.7 //y2=0
r450 (  133 134 ) resistor r=19.1658 //w=0.187 //l=0.28 //layer=li \
 //thickness=0.1 //x=12.7 //y=0.17 //x2=12.7 //y2=0.45
r451 (  132 303 ) resistor r=5.4201 //w=0.17 //l=0.085 //layer=li \
 //thickness=0.1 //x=12.3 //y=0.535 //x2=12.215 //y2=0.535
r452 (  131 303 ) resistor r=1.40859 //w=0.34 //l=0.085 //layer=li \
 //thickness=0.1 //x=12.615 //y=0.535 //x2=12.7 //y2=0.535
r453 (  131 132 ) resistor r=21.5615 //w=0.187 //l=0.315 //layer=li \
 //thickness=0.1 //x=12.615 //y=0.535 //x2=12.3 //y2=0.535
r454 (  130 303 ) resistor r=1.40859 //w=0.34 //l=0.085 //layer=li \
 //thickness=0.1 //x=12.215 //y=0.45 //x2=12.215 //y2=0.535
r455 (  129 249 ) resistor r=5.03728 //w=0.34 //l=0.17 //layer=li \
 //thickness=0.1 //x=12.215 //y=0.17 //x2=12.215 //y2=0
r456 (  129 130 ) resistor r=19.1658 //w=0.187 //l=0.28 //layer=li \
 //thickness=0.1 //x=12.215 //y=0.17 //x2=12.215 //y2=0.45
r457 (  128 303 ) resistor r=1.40859 //w=0.34 //l=0.085 //layer=li \
 //thickness=0.1 //x=11.815 //y=0.535 //x2=11.73 //y2=0.535
r458 (  127 303 ) resistor r=5.4201 //w=0.17 //l=0.085 //layer=li \
 //thickness=0.1 //x=12.13 //y=0.535 //x2=12.215 //y2=0.535
r459 (  127 128 ) resistor r=21.5615 //w=0.187 //l=0.315 //layer=li \
 //thickness=0.1 //x=12.13 //y=0.535 //x2=11.815 //y2=0.535
r460 (  123 303 ) resistor r=5.4201 //w=0.17 //l=0.085 //layer=li \
 //thickness=0.1 //x=11.73 //y=0.62 //x2=11.73 //y2=0.535
r461 (  123 303 ) resistor r=41.4118 //w=0.187 //l=0.605 //layer=li \
 //thickness=0.1 //x=11.73 //y=0.62 //x2=11.73 //y2=1.225
r462 (  122 303 ) resistor r=5.4201 //w=0.17 //l=0.085 //layer=li \
 //thickness=0.1 //x=11.73 //y=0.45 //x2=11.73 //y2=0.535
r463 (  121 246 ) resistor r=5.03728 //w=0.34 //l=0.17 //layer=li \
 //thickness=0.1 //x=11.73 //y=0.17 //x2=11.73 //y2=0
r464 (  121 122 ) resistor r=19.1658 //w=0.187 //l=0.28 //layer=li \
 //thickness=0.1 //x=11.73 //y=0.17 //x2=11.73 //y2=0.45
r465 (  120 245 ) resistor r=5.4201 //w=0.34 //l=0.17 //layer=li \
 //thickness=0.1 //x=11.27 //y=0 //x2=11.1 //y2=0
r466 (  119 246 ) resistor r=3.04762 //w=0.357 //l=0.085 //layer=li \
 //thickness=0.1 //x=11.645 //y=0 //x2=11.73 //y2=0
r467 (  119 120 ) resistor r=13.4454 //w=0.357 //l=0.375 //layer=li \
 //thickness=0.1 //x=11.645 //y=0 //x2=11.27 //y2=0
r468 (  114 116 ) resistor r=39.7983 //w=0.357 //l=1.11 //layer=li \
 //thickness=0.1 //x=9.62 //y=0 //x2=10.73 //y2=0
r469 (  112 244 ) resistor r=2.94794 //w=0.34 //l=0.085 //layer=li \
 //thickness=0.1 //x=9.035 //y=0 //x2=8.95 //y2=0
r470 (  112 114 ) resistor r=20.9748 //w=0.357 //l=0.585 //layer=li \
 //thickness=0.1 //x=9.035 //y=0 //x2=9.62 //y2=0
r471 (  111 245 ) resistor r=5.4201 //w=0.34 //l=0.17 //layer=li \
 //thickness=0.1 //x=10.93 //y=0 //x2=11.1 //y2=0
r472 (  111 116 ) resistor r=7.17087 //w=0.357 //l=0.2 //layer=li \
 //thickness=0.1 //x=10.93 //y=0 //x2=10.73 //y2=0
r473 (  107 244 ) resistor r=4.11603 //w=0.68 //l=0.17 //layer=li \
 //thickness=0.1 //x=8.95 //y=0.17 //x2=8.95 //y2=0
r474 (  107 302 ) resistor r=53.7326 //w=0.187 //l=0.785 //layer=li \
 //thickness=0.1 //x=8.95 //y=0.17 //x2=8.95 //y2=0.955
r475 (  104 243 ) resistor r=5.4201 //w=0.34 //l=0.17 //layer=li \
 //thickness=0.1 //x=7.94 //y=0 //x2=7.77 //y2=0
r476 (  104 106 ) resistor r=20.437 //w=0.357 //l=0.57 //layer=li \
 //thickness=0.1 //x=7.94 //y=0 //x2=8.51 //y2=0
r477 (  103 244 ) resistor r=2.94794 //w=0.34 //l=0.085 //layer=li \
 //thickness=0.1 //x=8.865 //y=0 //x2=8.95 //y2=0
r478 (  103 106 ) resistor r=12.7283 //w=0.357 //l=0.355 //layer=li \
 //thickness=0.1 //x=8.865 //y=0 //x2=8.51 //y2=0
r479 (  100 236 ) resistor r=3.04762 //w=0.357 //l=0.085 //layer=li \
 //thickness=0.1 //x=7.235 //y=0 //x2=7.15 //y2=0
r480 (  99 243 ) resistor r=5.4201 //w=0.34 //l=0.17 //layer=li \
 //thickness=0.1 //x=7.6 //y=0 //x2=7.77 //y2=0
r481 (  99 100 ) resistor r=13.0868 //w=0.357 //l=0.365 //layer=li \
 //thickness=0.1 //x=7.6 //y=0 //x2=7.235 //y2=0
r482 (  95 301 ) resistor r=5.4201 //w=0.17 //l=0.085 //layer=li \
 //thickness=0.1 //x=7.15 //y=0.62 //x2=7.15 //y2=0.535
r483 (  95 301 ) resistor r=41.4118 //w=0.187 //l=0.605 //layer=li \
 //thickness=0.1 //x=7.15 //y=0.62 //x2=7.15 //y2=1.225
r484 (  94 301 ) resistor r=5.4201 //w=0.17 //l=0.085 //layer=li \
 //thickness=0.1 //x=7.15 //y=0.45 //x2=7.15 //y2=0.535
r485 (  93 236 ) resistor r=5.03728 //w=0.34 //l=0.17 //layer=li \
 //thickness=0.1 //x=7.15 //y=0.17 //x2=7.15 //y2=0
r486 (  93 94 ) resistor r=19.1658 //w=0.187 //l=0.28 //layer=li \
 //thickness=0.1 //x=7.15 //y=0.17 //x2=7.15 //y2=0.45
r487 (  92 301 ) resistor r=5.4201 //w=0.17 //l=0.085 //layer=li \
 //thickness=0.1 //x=6.75 //y=0.535 //x2=6.665 //y2=0.535
r488 (  91 301 ) resistor r=1.40859 //w=0.34 //l=0.085 //layer=li \
 //thickness=0.1 //x=7.065 //y=0.535 //x2=7.15 //y2=0.535
r489 (  91 92 ) resistor r=21.5615 //w=0.187 //l=0.315 //layer=li \
 //thickness=0.1 //x=7.065 //y=0.535 //x2=6.75 //y2=0.535
r490 (  90 301 ) resistor r=1.40859 //w=0.34 //l=0.085 //layer=li \
 //thickness=0.1 //x=6.665 //y=0.45 //x2=6.665 //y2=0.535
r491 (  89 233 ) resistor r=5.03728 //w=0.34 //l=0.17 //layer=li \
 //thickness=0.1 //x=6.665 //y=0.17 //x2=6.665 //y2=0
r492 (  89 90 ) resistor r=19.1658 //w=0.187 //l=0.28 //layer=li \
 //thickness=0.1 //x=6.665 //y=0.17 //x2=6.665 //y2=0.45
r493 (  88 301 ) resistor r=1.40859 //w=0.34 //l=0.085 //layer=li \
 //thickness=0.1 //x=6.265 //y=0.535 //x2=6.18 //y2=0.535
r494 (  87 301 ) resistor r=5.4201 //w=0.17 //l=0.085 //layer=li \
 //thickness=0.1 //x=6.58 //y=0.535 //x2=6.665 //y2=0.535
r495 (  87 88 ) resistor r=21.5615 //w=0.187 //l=0.315 //layer=li \
 //thickness=0.1 //x=6.58 //y=0.535 //x2=6.265 //y2=0.535
r496 (  83 301 ) resistor r=5.4201 //w=0.17 //l=0.085 //layer=li \
 //thickness=0.1 //x=6.18 //y=0.62 //x2=6.18 //y2=0.535
r497 (  83 301 ) resistor r=41.4118 //w=0.187 //l=0.605 //layer=li \
 //thickness=0.1 //x=6.18 //y=0.62 //x2=6.18 //y2=1.225
r498 (  82 301 ) resistor r=5.4201 //w=0.17 //l=0.085 //layer=li \
 //thickness=0.1 //x=6.18 //y=0.45 //x2=6.18 //y2=0.535
r499 (  81 232 ) resistor r=5.03728 //w=0.34 //l=0.17 //layer=li \
 //thickness=0.1 //x=6.18 //y=0.17 //x2=6.18 //y2=0
r500 (  81 82 ) resistor r=19.1658 //w=0.187 //l=0.28 //layer=li \
 //thickness=0.1 //x=6.18 //y=0.17 //x2=6.18 //y2=0.45
r501 (  78 231 ) resistor r=5.4201 //w=0.34 //l=0.17 //layer=li \
 //thickness=0.1 //x=5.72 //y=0 //x2=5.55 //y2=0
r502 (  78 80 ) resistor r=7.17087 //w=0.357 //l=0.2 //layer=li \
 //thickness=0.1 //x=5.72 //y=0 //x2=5.92 //y2=0
r503 (  77 232 ) resistor r=3.04762 //w=0.357 //l=0.085 //layer=li \
 //thickness=0.1 //x=6.095 //y=0 //x2=6.18 //y2=0
r504 (  77 80 ) resistor r=6.27451 //w=0.357 //l=0.175 //layer=li \
 //thickness=0.1 //x=6.095 //y=0 //x2=5.92 //y2=0
r505 (  72 230 ) resistor r=2.94794 //w=0.34 //l=0.085 //layer=li \
 //thickness=0.1 //x=3.485 //y=0 //x2=3.4 //y2=0
r506 (  72 74 ) resistor r=34.2409 //w=0.357 //l=0.955 //layer=li \
 //thickness=0.1 //x=3.485 //y=0 //x2=4.44 //y2=0
r507 (  71 231 ) resistor r=5.4201 //w=0.34 //l=0.17 //layer=li \
 //thickness=0.1 //x=5.38 //y=0 //x2=5.55 //y2=0
r508 (  71 74 ) resistor r=33.7031 //w=0.357 //l=0.94 //layer=li \
 //thickness=0.1 //x=5.38 //y=0 //x2=4.44 //y2=0
r509 (  67 230 ) resistor r=4.11603 //w=0.68 //l=0.17 //layer=li \
 //thickness=0.1 //x=3.4 //y=0.17 //x2=3.4 //y2=0
r510 (  67 300 ) resistor r=53.7326 //w=0.187 //l=0.785 //layer=li \
 //thickness=0.1 //x=3.4 //y=0.17 //x2=3.4 //y2=0.955
r511 (  66 228 ) resistor r=5.4201 //w=0.34 //l=0.17 //layer=li \
 //thickness=0.1 //x=2.39 //y=0 //x2=2.22 //y2=0
r512 (  65 230 ) resistor r=2.94794 //w=0.34 //l=0.085 //layer=li \
 //thickness=0.1 //x=3.315 //y=0 //x2=3.4 //y2=0
r513 (  65 66 ) resistor r=33.1653 //w=0.357 //l=0.925 //layer=li \
 //thickness=0.1 //x=3.315 //y=0 //x2=2.39 //y2=0
r514 (  60 221 ) resistor r=3.04762 //w=0.357 //l=0.085 //layer=li \
 //thickness=0.1 //x=1.685 //y=0 //x2=1.6 //y2=0
r515 (  60 62 ) resistor r=5.91597 //w=0.357 //l=0.165 //layer=li \
 //thickness=0.1 //x=1.685 //y=0 //x2=1.85 //y2=0
r516 (  59 228 ) resistor r=5.4201 //w=0.34 //l=0.17 //layer=li \
 //thickness=0.1 //x=2.05 //y=0 //x2=2.22 //y2=0
r517 (  59 62 ) resistor r=7.17087 //w=0.357 //l=0.2 //layer=li \
 //thickness=0.1 //x=2.05 //y=0 //x2=1.85 //y2=0
r518 (  55 299 ) resistor r=5.4201 //w=0.17 //l=0.085 //layer=li \
 //thickness=0.1 //x=1.6 //y=0.62 //x2=1.6 //y2=0.535
r519 (  55 299 ) resistor r=41.4118 //w=0.187 //l=0.605 //layer=li \
 //thickness=0.1 //x=1.6 //y=0.62 //x2=1.6 //y2=1.225
r520 (  54 299 ) resistor r=5.4201 //w=0.17 //l=0.085 //layer=li \
 //thickness=0.1 //x=1.6 //y=0.45 //x2=1.6 //y2=0.535
r521 (  53 221 ) resistor r=5.03728 //w=0.34 //l=0.17 //layer=li \
 //thickness=0.1 //x=1.6 //y=0.17 //x2=1.6 //y2=0
r522 (  53 54 ) resistor r=19.1658 //w=0.187 //l=0.28 //layer=li \
 //thickness=0.1 //x=1.6 //y=0.17 //x2=1.6 //y2=0.45
r523 (  52 299 ) resistor r=5.4201 //w=0.17 //l=0.085 //layer=li \
 //thickness=0.1 //x=1.2 //y=0.535 //x2=1.115 //y2=0.535
r524 (  51 299 ) resistor r=1.40859 //w=0.34 //l=0.085 //layer=li \
 //thickness=0.1 //x=1.515 //y=0.535 //x2=1.6 //y2=0.535
r525 (  51 52 ) resistor r=21.5615 //w=0.187 //l=0.315 //layer=li \
 //thickness=0.1 //x=1.515 //y=0.535 //x2=1.2 //y2=0.535
r526 (  50 299 ) resistor r=1.40859 //w=0.34 //l=0.085 //layer=li \
 //thickness=0.1 //x=1.115 //y=0.45 //x2=1.115 //y2=0.535
r527 (  49 220 ) resistor r=5.03728 //w=0.34 //l=0.17 //layer=li \
 //thickness=0.1 //x=1.115 //y=0.17 //x2=1.115 //y2=0
r528 (  49 50 ) resistor r=19.1658 //w=0.187 //l=0.28 //layer=li \
 //thickness=0.1 //x=1.115 //y=0.17 //x2=1.115 //y2=0.45
r529 (  48 299 ) resistor r=1.40859 //w=0.34 //l=0.085 //layer=li \
 //thickness=0.1 //x=0.715 //y=0.535 //x2=0.63 //y2=0.535
r530 (  47 299 ) resistor r=5.4201 //w=0.17 //l=0.085 //layer=li \
 //thickness=0.1 //x=1.03 //y=0.535 //x2=1.115 //y2=0.535
r531 (  47 48 ) resistor r=21.5615 //w=0.187 //l=0.315 //layer=li \
 //thickness=0.1 //x=1.03 //y=0.535 //x2=0.715 //y2=0.535
r532 (  43 299 ) resistor r=5.4201 //w=0.17 //l=0.085 //layer=li \
 //thickness=0.1 //x=0.63 //y=0.62 //x2=0.63 //y2=0.535
r533 (  43 299 ) resistor r=41.4118 //w=0.187 //l=0.605 //layer=li \
 //thickness=0.1 //x=0.63 //y=0.62 //x2=0.63 //y2=1.225
r534 (  42 299 ) resistor r=5.4201 //w=0.17 //l=0.085 //layer=li \
 //thickness=0.1 //x=0.63 //y=0.45 //x2=0.63 //y2=0.535
r535 (  41 217 ) resistor r=5.03728 //w=0.34 //l=0.17 //layer=li \
 //thickness=0.1 //x=0.63 //y=0.17 //x2=0.63 //y2=0
r536 (  41 42 ) resistor r=19.1658 //w=0.187 //l=0.28 //layer=li \
 //thickness=0.1 //x=0.63 //y=0.17 //x2=0.63 //y2=0.45
r537 (  35 287 ) resistor r=4.65 //w=0.17 //l=0.34 //layer=mcon //count=2 \
 //x=19.24 //y=0 //x2=19.24 //y2=0
r538 (  33 284 ) resistor r=3.1 //w=0.17 //l=0.51 //layer=mcon //count=3 \
 //x=18.5 //y=0 //x2=18.5 //y2=0
r539 (  33 35 ) resistor r=0.307309 //w=0.301 //l=0.74 //layer=m1 \
 //thickness=0.36 //x=18.5 //y=0 //x2=19.24 //y2=0
r540 (  31 280 ) resistor r=3.1 //w=0.17 //l=0.51 //layer=mcon //count=3 \
 //x=17.39 //y=0 //x2=17.39 //y2=0
r541 (  31 33 ) resistor r=0.460963 //w=0.301 //l=1.11 //layer=m1 \
 //thickness=0.36 //x=17.39 //y=0 //x2=18.5 //y2=0
r542 (  29 265 ) resistor r=3.1 //w=0.17 //l=0.51 //layer=mcon //count=3 \
 //x=15.91 //y=0 //x2=15.91 //y2=0
r543 (  29 31 ) resistor r=0.614618 //w=0.301 //l=1.48 //layer=m1 \
 //thickness=0.36 //x=15.91 //y=0 //x2=17.39 //y2=0
r544 (  27 261 ) resistor r=3.1 //w=0.17 //l=0.51 //layer=mcon //count=3 \
 //x=14.8 //y=0 //x2=14.8 //y2=0
r545 (  27 29 ) resistor r=0.460963 //w=0.301 //l=1.11 //layer=m1 \
 //thickness=0.36 //x=14.8 //y=0 //x2=15.91 //y2=0
r546 (  25 146 ) resistor r=3.1 //w=0.17 //l=0.51 //layer=mcon //count=3 \
 //x=13.69 //y=0 //x2=13.69 //y2=0
r547 (  25 27 ) resistor r=0.460963 //w=0.301 //l=1.11 //layer=m1 \
 //thickness=0.36 //x=13.69 //y=0 //x2=14.8 //y2=0
r548 (  23 248 ) resistor r=3.1 //w=0.17 //l=0.51 //layer=mcon //count=3 \
 //x=12.21 //y=0 //x2=12.21 //y2=0
r549 (  23 25 ) resistor r=0.614618 //w=0.301 //l=1.48 //layer=m1 \
 //thickness=0.36 //x=12.21 //y=0 //x2=13.69 //y2=0
r550 (  21 116 ) resistor r=3.1 //w=0.17 //l=0.51 //layer=mcon //count=3 \
 //x=10.73 //y=0 //x2=10.73 //y2=0
r551 (  21 23 ) resistor r=0.614618 //w=0.301 //l=1.48 //layer=m1 \
 //thickness=0.36 //x=10.73 //y=0 //x2=12.21 //y2=0
r552 (  18 114 ) resistor r=3.1 //w=0.17 //l=0.51 //layer=mcon //count=3 \
 //x=9.62 //y=0 //x2=9.62 //y2=0
r553 (  16 106 ) resistor r=3.1 //w=0.17 //l=0.51 //layer=mcon //count=3 \
 //x=8.51 //y=0 //x2=8.51 //y2=0
r554 (  16 18 ) resistor r=0.460963 //w=0.301 //l=1.11 //layer=m1 \
 //thickness=0.36 //x=8.51 //y=0 //x2=9.62 //y2=0
r555 (  14 235 ) resistor r=3.1 //w=0.17 //l=0.51 //layer=mcon //count=3 \
 //x=7.03 //y=0 //x2=7.03 //y2=0