// File: DLATCH.spi.DLATCH.pxi
// Created: Tue Oct 15 15:48:26 2024
// 
simulator lang=spectre
x_PM_DLATCH\%GND ( GND N_GND_c_9_p N_GND_c_29_p N_GND_c_91_p N_GND_c_250_p \
 N_GND_c_19_p N_GND_c_25_p N_GND_c_57_p N_GND_c_247_p N_GND_c_37_p \
 N_GND_c_45_p N_GND_c_273_p N_GND_c_59_p N_GND_c_60_p N_GND_c_74_p \
 N_GND_c_99_p N_GND_c_270_p N_GND_c_100_p N_GND_c_116_p N_GND_c_128_p \
 N_GND_c_144_p N_GND_c_163_p N_GND_c_166_p N_GND_c_153_p N_GND_c_154_p \
 N_GND_c_155_p N_GND_c_178_p N_GND_c_195_p N_GND_c_199_p N_GND_c_2_p \
 N_GND_c_3_p N_GND_c_4_p N_GND_c_5_p N_GND_c_6_p N_GND_c_7_p N_GND_c_8_p \
 N_GND_c_1_p N_GND_M0_noxref_s N_GND_M1_noxref_d N_GND_M3_noxref_s \
 N_GND_M4_noxref_d N_GND_M6_noxref_s N_GND_M7_noxref_s N_GND_M9_noxref_s )  \
 PM_DLATCH\%GND
x_PM_DLATCH\%VDD ( VDD N_VDD_c_288_p N_VDD_c_289_p N_VDD_c_358_p N_VDD_c_359_p \
 N_VDD_c_295_p N_VDD_c_309_p N_VDD_c_361_p N_VDD_c_362_p N_VDD_c_322_p \
 N_VDD_c_364_p N_VDD_c_365_p N_VDD_c_344_p N_VDD_c_390_p N_VDD_c_413_p \
 N_VDD_c_476_p N_VDD_c_447_p N_VDD_c_450_p N_VDD_c_467_p N_VDD_c_279_n \
 N_VDD_c_280_n N_VDD_c_281_n N_VDD_c_282_n N_VDD_c_283_n N_VDD_c_284_n \
 N_VDD_c_285_n N_VDD_c_286_n N_VDD_M11_noxref_s N_VDD_M12_noxref_d \
 N_VDD_M13_noxref_s N_VDD_M14_noxref_d N_VDD_M16_noxref_d N_VDD_M17_noxref_s \
 N_VDD_M18_noxref_d N_VDD_M19_noxref_s N_VDD_M20_noxref_d N_VDD_M22_noxref_d \
 N_VDD_M23_noxref_s N_VDD_M24_noxref_d N_VDD_M25_noxref_d N_VDD_M29_noxref_d ) \
 PM_DLATCH\%VDD
x_PM_DLATCH\%noxref_3 ( N_noxref_3_c_546_n N_noxref_3_c_549_n \
 N_noxref_3_c_551_n N_noxref_3_c_622_p N_noxref_3_c_571_n N_noxref_3_c_574_n \
 N_noxref_3_c_554_n N_noxref_3_c_555_n N_noxref_3_M1_noxref_g \
 N_noxref_3_M13_noxref_g N_noxref_3_M14_noxref_g N_noxref_3_c_556_n \
 N_noxref_3_c_558_n N_noxref_3_c_609_p N_noxref_3_c_559_n N_noxref_3_c_560_n \
 N_noxref_3_c_561_n N_noxref_3_c_562_n N_noxref_3_c_564_n N_noxref_3_c_584_n \
 N_noxref_3_M0_noxref_d N_noxref_3_M11_noxref_d )  PM_DLATCH\%noxref_3
x_PM_DLATCH\%noxref_4 ( N_noxref_4_c_725_p N_noxref_4_c_726_p \
 N_noxref_4_c_685_n N_noxref_4_c_689_n N_noxref_4_c_691_n N_noxref_4_c_663_n \
 N_noxref_4_c_727_p N_noxref_4_c_665_n N_noxref_4_c_666_n N_noxref_4_c_746_p \
 N_noxref_4_M3_noxref_g N_noxref_4_M17_noxref_g N_noxref_4_M18_noxref_g \
 N_noxref_4_c_671_n N_noxref_4_c_779_p N_noxref_4_c_780_p N_noxref_4_c_673_n \
 N_noxref_4_c_705_n N_noxref_4_c_706_n N_noxref_4_c_674_n N_noxref_4_c_767_p \
 N_noxref_4_c_675_n N_noxref_4_c_677_n N_noxref_4_c_678_n \
 N_noxref_4_M2_noxref_d N_noxref_4_M13_noxref_d N_noxref_4_M15_noxref_d )  \
 PM_DLATCH\%noxref_4
x_PM_DLATCH\%GATE ( N_GATE_c_797_n N_GATE_c_806_n GATE GATE GATE GATE GATE \
 GATE GATE GATE GATE N_GATE_c_835_n N_GATE_c_807_n N_GATE_c_809_n \
 N_GATE_M2_noxref_g N_GATE_M4_noxref_g N_GATE_M15_noxref_g N_GATE_M16_noxref_g \
 N_GATE_M19_noxref_g N_GATE_M20_noxref_g N_GATE_c_844_n N_GATE_c_847_n \
 N_GATE_c_849_n N_GATE_c_878_n N_GATE_c_880_n N_GATE_c_881_n N_GATE_c_852_n \
 N_GATE_c_853_n N_GATE_c_810_n N_GATE_c_812_n N_GATE_c_910_p N_GATE_c_813_n \
 N_GATE_c_814_n N_GATE_c_815_n N_GATE_c_816_n N_GATE_c_818_n N_GATE_c_854_n \
 N_GATE_c_887_n N_GATE_c_856_n N_GATE_c_833_n )  PM_DLATCH\%GATE
x_PM_DLATCH\%D ( N_D_c_958_n N_D_c_959_n D D D D D D D D D D D D D N_D_c_961_n \
 N_D_c_1065_n N_D_c_966_n N_D_M0_noxref_g N_D_M5_noxref_g N_D_M11_noxref_g \
 N_D_M12_noxref_g N_D_M21_noxref_g N_D_M22_noxref_g N_D_c_968_n N_D_c_1036_n \
 N_D_c_1037_n N_D_c_970_n N_D_c_1017_n N_D_c_1018_n N_D_c_971_n N_D_c_1044_n \
 N_D_c_972_n N_D_c_974_n N_D_c_1073_n N_D_c_1076_n N_D_c_1078_n N_D_c_1099_p \
 N_D_c_1108_p N_D_c_1094_p N_D_c_1081_n N_D_c_1082_n N_D_c_975_n N_D_c_1083_n \
 N_D_c_1101_p N_D_c_1085_n )  PM_DLATCH\%D
x_PM_DLATCH\%noxref_7 ( N_noxref_7_c_1135_n N_noxref_7_c_1141_n \
 N_noxref_7_c_1164_n N_noxref_7_c_1168_n N_noxref_7_c_1170_n \
 N_noxref_7_c_1142_n N_noxref_7_c_1236_p N_noxref_7_c_1144_n \
 N_noxref_7_c_1145_n N_noxref_7_c_1222_n N_noxref_7_M6_noxref_g \
 N_noxref_7_M23_noxref_g N_noxref_7_M24_noxref_g N_noxref_7_c_1150_n \
 N_noxref_7_c_1255_p N_noxref_7_c_1256_p N_noxref_7_c_1152_n \
 N_noxref_7_c_1184_n N_noxref_7_c_1185_n N_noxref_7_c_1153_n \
 N_noxref_7_c_1243_p N_noxref_7_c_1154_n N_noxref_7_c_1156_n \
 N_noxref_7_c_1157_n N_noxref_7_M5_noxref_d N_noxref_7_M19_noxref_d \
 N_noxref_7_M21_noxref_d )  PM_DLATCH\%noxref_7
x_PM_DLATCH\%noxref_8 ( N_noxref_8_c_1274_n N_noxref_8_c_1326_n \
 N_noxref_8_c_1280_n N_noxref_8_c_1329_n N_noxref_8_c_1305_n \
 N_noxref_8_c_1308_n N_noxref_8_c_1283_n N_noxref_8_c_1284_n \
 N_noxref_8_c_1312_n N_noxref_8_M7_noxref_g N_noxref_8_M25_noxref_g \
 N_noxref_8_M26_noxref_g N_noxref_8_c_1287_n N_noxref_8_c_1381_p \
 N_noxref_8_c_1382_p N_noxref_8_c_1289_n N_noxref_8_c_1291_n \
 N_noxref_8_c_1385_p N_noxref_8_c_1391_p N_noxref_8_c_1292_n \
 N_noxref_8_c_1294_n N_noxref_8_c_1320_n N_noxref_8_M3_noxref_d \
 N_noxref_8_M17_noxref_d )  PM_DLATCH\%noxref_8
x_PM_DLATCH\%Q ( N_Q_c_1438_n N_Q_c_1444_n Q Q Q Q Q Q Q Q Q Q N_Q_c_1447_n \
 N_Q_c_1494_n N_Q_c_1476_n N_Q_c_1478_n N_Q_c_1451_n N_Q_c_1456_n N_Q_c_1480_n \
 N_Q_M9_noxref_g N_Q_M29_noxref_g N_Q_M30_noxref_g N_Q_c_1459_n N_Q_c_1526_p \
 N_Q_c_1527_p N_Q_c_1461_n N_Q_c_1463_n N_Q_c_1584_p N_Q_c_1512_p N_Q_c_1464_n \
 N_Q_c_1466_n N_Q_c_1488_n N_Q_M7_noxref_d N_Q_M8_noxref_d N_Q_M27_noxref_d )  \
 PM_DLATCH\%Q
x_PM_DLATCH\%noxref_10 ( N_noxref_10_c_1605_n N_noxref_10_c_1631_n \
 N_noxref_10_c_1606_n N_noxref_10_c_1652_n N_noxref_10_c_1634_n \
 N_noxref_10_c_1637_n N_noxref_10_c_1609_n N_noxref_10_c_1695_n \
 N_noxref_10_c_1610_n N_noxref_10_M10_noxref_g N_noxref_10_M31_noxref_g \
 N_noxref_10_M32_noxref_g N_noxref_10_c_1612_n N_noxref_10_c_1707_n \
 N_noxref_10_c_1710_n N_noxref_10_c_1723_p N_noxref_10_c_1614_n \
 N_noxref_10_c_1615_n N_noxref_10_c_1616_n N_noxref_10_c_1714_n \
 N_noxref_10_c_1715_n N_noxref_10_c_1717_n N_noxref_10_c_1718_n \
 N_noxref_10_M6_noxref_d N_noxref_10_M23_noxref_d )  PM_DLATCH\%noxref_10
x_PM_DLATCH\%noxref_11 ( N_noxref_11_c_1767_n N_noxref_11_c_1769_n \
 N_noxref_11_c_1809_n N_noxref_11_c_1770_n N_noxref_11_c_1772_n \
 N_noxref_11_c_1847_n N_noxref_11_c_1797_n N_noxref_11_c_1799_n \
 N_noxref_11_c_1776_n N_noxref_11_c_1780_n N_noxref_11_M8_noxref_g \
 N_noxref_11_M27_noxref_g N_noxref_11_M28_noxref_g N_noxref_11_c_1781_n \
 N_noxref_11_c_1820_n N_noxref_11_c_1823_n N_noxref_11_c_1860_n \
 N_noxref_11_c_1783_n N_noxref_11_c_1784_n N_noxref_11_c_1785_n \
 N_noxref_11_c_1827_n N_noxref_11_c_1828_n N_noxref_11_c_1830_n \
 N_noxref_11_c_1831_n N_noxref_11_M9_noxref_d N_noxref_11_M10_noxref_d \
 N_noxref_11_M31_noxref_d )  PM_DLATCH\%noxref_11
x_PM_DLATCH\%noxref_12 ( N_noxref_12_c_1929_n N_noxref_12_c_1930_n \
 N_noxref_12_c_1934_n N_noxref_12_c_1937_n N_noxref_12_c_1938_n \
 N_noxref_12_c_1941_n N_noxref_12_M1_noxref_s )  PM_DLATCH\%noxref_12
x_PM_DLATCH\%noxref_13 ( N_noxref_13_c_1984_n N_noxref_13_c_1985_n \
 N_noxref_13_c_1989_n N_noxref_13_c_1992_n N_noxref_13_c_1993_n \
 N_noxref_13_c_1996_n N_noxref_13_M4_noxref_s )  PM_DLATCH\%noxref_13
x_PM_DLATCH\%noxref_14 ( N_noxref_14_c_2038_n N_noxref_14_c_2043_n \
 N_noxref_14_c_2045_n N_noxref_14_c_2046_n N_noxref_14_M25_noxref_s \
 N_noxref_14_M26_noxref_d N_noxref_14_M28_noxref_d )  PM_DLATCH\%noxref_14
x_PM_DLATCH\%noxref_15 ( N_noxref_15_c_2081_n N_noxref_15_c_2085_n \
 N_noxref_15_c_2086_n N_noxref_15_c_2087_n N_noxref_15_M29_noxref_s \
 N_noxref_15_M30_noxref_d N_noxref_15_M32_noxref_d )  PM_DLATCH\%noxref_15
cc_1 ( N_GND_c_1_p N_VDD_c_279_n ) capacitor c=0.00989031f //x=19.285 //y=0 \
 //x2=19.24 //y2=7.4
cc_2 ( N_GND_c_2_p N_VDD_c_280_n ) capacitor c=0.00989031f //x=0.63 //y=0 \
 //x2=0.74 //y2=7.4
cc_3 ( N_GND_c_3_p N_VDD_c_281_n ) capacitor c=0.00524516f //x=2.22 //y=0 \
 //x2=2.22 //y2=7.4
cc_4 ( N_GND_c_4_p N_VDD_c_282_n ) capacitor c=0.00478842f //x=5.55 //y=0 \
 //x2=5.55 //y2=7.4
cc_5 ( N_GND_c_5_p N_VDD_c_283_n ) capacitor c=0.00474727f //x=7.77 //y=0 \
 //x2=7.77 //y2=7.4
cc_6 ( N_GND_c_6_p N_VDD_c_284_n ) capacitor c=0.0082808f //x=11.1 //y=0 \
 //x2=11.1 //y2=7.4
cc_7 ( N_GND_c_7_p N_VDD_c_285_n ) capacitor c=0.00524516f //x=13.32 //y=0 \
 //x2=13.32 //y2=7.4
cc_8 ( N_GND_c_8_p N_VDD_c_286_n ) capacitor c=0.00500587f //x=16.65 //y=0 \
 //x2=16.65 //y2=7.4
cc_9 ( N_GND_c_9_p N_noxref_3_c_546_n ) capacitor c=0.0125656f //x=19.24 //y=0 \
 //x2=3.215 //y2=3.7
cc_10 ( N_GND_c_3_p N_noxref_3_c_546_n ) capacitor c=0.00533016f //x=2.22 \
 //y=0 //x2=3.215 //y2=3.7
cc_11 ( N_GND_M0_noxref_s N_noxref_3_c_546_n ) capacitor c=9.53643e-19 \
 //x=0.495 //y=0.37 //x2=3.215 //y2=3.7
cc_12 ( N_GND_c_9_p N_noxref_3_c_549_n ) capacitor c=0.00169912f //x=19.24 \
 //y=0 //x2=1.595 //y2=3.7
cc_13 ( N_GND_M0_noxref_s N_noxref_3_c_549_n ) capacitor c=4.89832e-19 \
 //x=0.495 //y=0.37 //x2=1.595 //y2=3.7
cc_14 ( N_GND_c_9_p N_noxref_3_c_551_n ) capacitor c=0.00134677f //x=19.24 \
 //y=0 //x2=1.395 //y2=2.08
cc_15 ( N_GND_c_3_p N_noxref_3_c_551_n ) capacitor c=0.0296841f //x=2.22 //y=0 \
 //x2=1.395 //y2=2.08
cc_16 ( N_GND_M0_noxref_s N_noxref_3_c_551_n ) capacitor c=0.00988677f \
 //x=0.495 //y=0.37 //x2=1.395 //y2=2.08
cc_17 ( N_GND_c_2_p N_noxref_3_c_554_n ) capacitor c=8.10282e-19 //x=0.63 \
 //y=0 //x2=1.48 //y2=3.7
cc_18 ( N_GND_c_3_p N_noxref_3_c_555_n ) capacitor c=0.0179404f //x=2.22 //y=0 \
 //x2=3.33 //y2=2.08
cc_19 ( N_GND_c_19_p N_noxref_3_c_556_n ) capacitor c=0.00135046f //x=3.315 \
 //y=0 //x2=3.135 //y2=0.865
cc_20 ( N_GND_M1_noxref_d N_noxref_3_c_556_n ) capacitor c=0.00220047f \
 //x=3.21 //y=0.865 //x2=3.135 //y2=0.865
cc_21 ( N_GND_M1_noxref_d N_noxref_3_c_558_n ) capacitor c=0.00255985f \
 //x=3.21 //y=0.865 //x2=3.135 //y2=1.21
cc_22 ( N_GND_c_3_p N_noxref_3_c_559_n ) capacitor c=0.0114883f //x=2.22 //y=0 \
 //x2=3.135 //y2=1.915
cc_23 ( N_GND_M1_noxref_d N_noxref_3_c_560_n ) capacitor c=0.0131326f //x=3.21 \
 //y=0.865 //x2=3.51 //y2=0.71
cc_24 ( N_GND_M1_noxref_d N_noxref_3_c_561_n ) capacitor c=0.00193127f \
 //x=3.21 //y=0.865 //x2=3.51 //y2=1.365
cc_25 ( N_GND_c_25_p N_noxref_3_c_562_n ) capacitor c=0.00130622f //x=5.38 \
 //y=0 //x2=3.665 //y2=0.865
cc_26 ( N_GND_M1_noxref_d N_noxref_3_c_562_n ) capacitor c=0.00257848f \
 //x=3.21 //y=0.865 //x2=3.665 //y2=0.865
cc_27 ( N_GND_M1_noxref_d N_noxref_3_c_564_n ) capacitor c=0.00255985f \
 //x=3.21 //y=0.865 //x2=3.665 //y2=1.21
cc_28 ( N_GND_c_9_p N_noxref_3_M0_noxref_d ) capacitor c=0.00136354f //x=19.24 \
 //y=0 //x2=0.925 //y2=0.91
cc_29 ( N_GND_c_29_p N_noxref_3_M0_noxref_d ) capacitor c=0.0151737f //x=1.03 \
 //y=0.535 //x2=0.925 //y2=0.91
cc_30 ( N_GND_c_2_p N_noxref_3_M0_noxref_d ) capacitor c=0.0094373f //x=0.63 \
 //y=0 //x2=0.925 //y2=0.91
cc_31 ( N_GND_c_3_p N_noxref_3_M0_noxref_d ) capacitor c=0.00949241f //x=2.22 \
 //y=0 //x2=0.925 //y2=0.91
cc_32 ( N_GND_M0_noxref_s N_noxref_3_M0_noxref_d ) capacitor c=0.076995f \
 //x=0.495 //y=0.37 //x2=0.925 //y2=0.91
cc_33 ( N_GND_c_4_p N_noxref_4_c_663_n ) capacitor c=0.0461206f //x=5.55 //y=0 \
 //x2=4.725 //y2=1.655
cc_34 ( N_GND_M3_noxref_s N_noxref_4_c_663_n ) capacitor c=3.37896e-19 \
 //x=6.045 //y=0.37 //x2=4.725 //y2=1.655
cc_35 ( N_GND_c_3_p N_noxref_4_c_665_n ) capacitor c=0.00101801f //x=2.22 \
 //y=0 //x2=4.81 //y2=3.33
cc_36 ( N_GND_c_9_p N_noxref_4_c_666_n ) capacitor c=0.00183858f //x=19.24 \
 //y=0 //x2=6.29 //y2=2.085
cc_37 ( N_GND_c_37_p N_noxref_4_c_666_n ) capacitor c=7.85046e-19 //x=6.58 \
 //y=0.535 //x2=6.29 //y2=2.085
cc_38 ( N_GND_c_4_p N_noxref_4_c_666_n ) capacitor c=0.029021f //x=5.55 //y=0 \
 //x2=6.29 //y2=2.085
cc_39 ( N_GND_c_5_p N_noxref_4_c_666_n ) capacitor c=0.00118911f //x=7.77 \
 //y=0 //x2=6.29 //y2=2.085
cc_40 ( N_GND_M3_noxref_s N_noxref_4_c_666_n ) capacitor c=0.0102562f \
 //x=6.045 //y=0.37 //x2=6.29 //y2=2.085
cc_41 ( N_GND_c_37_p N_noxref_4_c_671_n ) capacitor c=0.0123171f //x=6.58 \
 //y=0.535 //x2=6.4 //y2=0.91
cc_42 ( N_GND_M3_noxref_s N_noxref_4_c_671_n ) capacitor c=0.0317689f \
 //x=6.045 //y=0.37 //x2=6.4 //y2=0.91
cc_43 ( N_GND_c_4_p N_noxref_4_c_673_n ) capacitor c=0.00562003f //x=5.55 \
 //y=0 //x2=6.4 //y2=1.92
cc_44 ( N_GND_M3_noxref_s N_noxref_4_c_674_n ) capacitor c=0.00489f //x=6.045 \
 //y=0.37 //x2=6.775 //y2=0.755
cc_45 ( N_GND_c_45_p N_noxref_4_c_675_n ) capacitor c=0.0119174f //x=7.065 \
 //y=0.535 //x2=6.93 //y2=0.91
cc_46 ( N_GND_M3_noxref_s N_noxref_4_c_675_n ) capacitor c=0.0143355f \
 //x=6.045 //y=0.37 //x2=6.93 //y2=0.91
cc_47 ( N_GND_M3_noxref_s N_noxref_4_c_677_n ) capacitor c=0.0074042f \
 //x=6.045 //y=0.37 //x2=6.93 //y2=1.255
cc_48 ( N_GND_c_37_p N_noxref_4_c_678_n ) capacitor c=2.1838e-19 //x=6.58 \
 //y=0.535 //x2=6.29 //y2=2.085
cc_49 ( N_GND_c_4_p N_noxref_4_c_678_n ) capacitor c=0.0108179f //x=5.55 //y=0 \
 //x2=6.29 //y2=2.085
cc_50 ( N_GND_M3_noxref_s N_noxref_4_c_678_n ) capacitor c=0.0065286f \
 //x=6.045 //y=0.37 //x2=6.29 //y2=2.085
cc_51 ( N_GND_c_3_p N_noxref_4_M2_noxref_d ) capacitor c=8.58106e-19 //x=2.22 \
 //y=0 //x2=4.18 //y2=0.905
cc_52 ( N_GND_c_4_p N_noxref_4_M2_noxref_d ) capacitor c=0.00616547f //x=5.55 \
 //y=0 //x2=4.18 //y2=0.905
cc_53 ( N_GND_M1_noxref_d N_noxref_4_M2_noxref_d ) capacitor c=0.00143464f \
 //x=3.21 //y=0.865 //x2=4.18 //y2=0.905
cc_54 ( N_GND_M3_noxref_s N_noxref_4_M2_noxref_d ) capacitor c=2.09402e-19 \
 //x=6.045 //y=0.37 //x2=4.18 //y2=0.905
cc_55 ( N_GND_c_9_p N_GATE_c_797_n ) capacitor c=0.0382572f //x=19.24 //y=0 \
 //x2=8.765 //y2=2.96
cc_56 ( N_GND_c_25_p N_GATE_c_797_n ) capacitor c=0.00208984f //x=5.38 //y=0 \
 //x2=8.765 //y2=2.96
cc_57 ( N_GND_c_57_p N_GATE_c_797_n ) capacitor c=0.00134487f //x=6.095 //y=0 \
 //x2=8.765 //y2=2.96
cc_58 ( N_GND_c_37_p N_GATE_c_797_n ) capacitor c=0.00140351f //x=6.58 \
 //y=0.535 //x2=8.765 //y2=2.96
cc_59 ( N_GND_c_59_p N_GATE_c_797_n ) capacitor c=0.00129597f //x=7.6 //y=0 \
 //x2=8.765 //y2=2.96
cc_60 ( N_GND_c_60_p N_GATE_c_797_n ) capacitor c=0.00230184f //x=8.865 //y=0 \
 //x2=8.765 //y2=2.96
cc_61 ( N_GND_c_4_p N_GATE_c_797_n ) capacitor c=0.0144849f //x=5.55 //y=0 \
 //x2=8.765 //y2=2.96
cc_62 ( N_GND_c_5_p N_GATE_c_797_n ) capacitor c=0.0144849f //x=7.77 //y=0 \
 //x2=8.765 //y2=2.96
cc_63 ( N_GND_M3_noxref_s N_GATE_c_797_n ) capacitor c=0.00500287f //x=6.045 \
 //y=0.37 //x2=8.765 //y2=2.96
cc_64 ( N_GND_c_9_p N_GATE_c_806_n ) capacitor c=0.00190938f //x=19.24 //y=0 \
 //x2=4.185 //y2=2.96
cc_65 ( N_GND_c_3_p N_GATE_c_807_n ) capacitor c=9.2064e-19 //x=2.22 //y=0 \
 //x2=4.07 //y2=2.08
cc_66 ( N_GND_c_4_p N_GATE_c_807_n ) capacitor c=9.53263e-19 //x=5.55 //y=0 \
 //x2=4.07 //y2=2.08
cc_67 ( N_GND_c_5_p N_GATE_c_809_n ) capacitor c=0.0179404f //x=7.77 //y=0 \
 //x2=8.88 //y2=2.08
cc_68 ( N_GND_c_60_p N_GATE_c_810_n ) capacitor c=0.00135046f //x=8.865 //y=0 \
 //x2=8.685 //y2=0.865
cc_69 ( N_GND_M4_noxref_d N_GATE_c_810_n ) capacitor c=0.00220047f //x=8.76 \
 //y=0.865 //x2=8.685 //y2=0.865
cc_70 ( N_GND_M4_noxref_d N_GATE_c_812_n ) capacitor c=0.00255985f //x=8.76 \
 //y=0.865 //x2=8.685 //y2=1.21
cc_71 ( N_GND_c_5_p N_GATE_c_813_n ) capacitor c=0.0114883f //x=7.77 //y=0 \
 //x2=8.685 //y2=1.915
cc_72 ( N_GND_M4_noxref_d N_GATE_c_814_n ) capacitor c=0.0131326f //x=8.76 \
 //y=0.865 //x2=9.06 //y2=0.71
cc_73 ( N_GND_M4_noxref_d N_GATE_c_815_n ) capacitor c=0.00193127f //x=8.76 \
 //y=0.865 //x2=9.06 //y2=1.365
cc_74 ( N_GND_c_74_p N_GATE_c_816_n ) capacitor c=0.00130622f //x=10.93 //y=0 \
 //x2=9.215 //y2=0.865
cc_75 ( N_GND_M4_noxref_d N_GATE_c_816_n ) capacitor c=0.00257848f //x=8.76 \
 //y=0.865 //x2=9.215 //y2=0.865
cc_76 ( N_GND_M4_noxref_d N_GATE_c_818_n ) capacitor c=0.00255985f //x=8.76 \
 //y=0.865 //x2=9.215 //y2=1.21
cc_77 ( N_GND_c_9_p N_D_c_958_n ) capacitor c=0.0153547f //x=19.24 //y=0 \
 //x2=9.505 //y2=4.07
cc_78 ( N_GND_c_9_p N_D_c_959_n ) capacitor c=0.00155455f //x=19.24 //y=0 \
 //x2=0.855 //y2=4.07
cc_79 ( N_GND_M0_noxref_s N_D_c_959_n ) capacitor c=5.91312e-19 //x=0.495 \
 //y=0.37 //x2=0.855 //y2=4.07
cc_80 ( N_GND_c_9_p N_D_c_961_n ) capacitor c=0.00187124f //x=19.24 //y=0 \
 //x2=0.74 //y2=2.085
cc_81 ( N_GND_c_29_p N_D_c_961_n ) capacitor c=8.01092e-19 //x=1.03 //y=0.535 \
 //x2=0.74 //y2=2.085
cc_82 ( N_GND_c_2_p N_D_c_961_n ) capacitor c=0.0293771f //x=0.63 //y=0 \
 //x2=0.74 //y2=2.085
cc_83 ( N_GND_c_3_p N_D_c_961_n ) capacitor c=0.00118911f //x=2.22 //y=0 \
 //x2=0.74 //y2=2.085
cc_84 ( N_GND_M0_noxref_s N_D_c_961_n ) capacitor c=0.0110965f //x=0.495 \
 //y=0.37 //x2=0.74 //y2=2.085
cc_85 ( N_GND_c_5_p N_D_c_966_n ) capacitor c=9.2064e-19 //x=7.77 //y=0 \
 //x2=9.62 //y2=2.08
cc_86 ( N_GND_c_6_p N_D_c_966_n ) capacitor c=9.53263e-19 //x=11.1 //y=0 \
 //x2=9.62 //y2=2.08
cc_87 ( N_GND_c_29_p N_D_c_968_n ) capacitor c=0.0120496f //x=1.03 //y=0.535 \
 //x2=0.85 //y2=0.91
cc_88 ( N_GND_M0_noxref_s N_D_c_968_n ) capacitor c=0.0316657f //x=0.495 \
 //y=0.37 //x2=0.85 //y2=0.91
cc_89 ( N_GND_c_2_p N_D_c_970_n ) capacitor c=0.0124051f //x=0.63 //y=0 \
 //x2=0.85 //y2=1.92
cc_90 ( N_GND_M0_noxref_s N_D_c_971_n ) capacitor c=0.00483274f //x=0.495 \
 //y=0.37 //x2=1.225 //y2=0.755
cc_91 ( N_GND_c_91_p N_D_c_972_n ) capacitor c=0.0118602f //x=1.515 //y=0.535 \
 //x2=1.38 //y2=0.91
cc_92 ( N_GND_M0_noxref_s N_D_c_972_n ) capacitor c=0.0143355f //x=0.495 \
 //y=0.37 //x2=1.38 //y2=0.91
cc_93 ( N_GND_M0_noxref_s N_D_c_974_n ) capacitor c=0.0074042f //x=0.495 \
 //y=0.37 //x2=1.38 //y2=1.255
cc_94 ( N_GND_c_29_p N_D_c_975_n ) capacitor c=2.1838e-19 //x=1.03 //y=0.535 \
 //x2=0.74 //y2=2.085
cc_95 ( N_GND_c_2_p N_D_c_975_n ) capacitor c=0.0108179f //x=0.63 //y=0 \
 //x2=0.74 //y2=2.085
cc_96 ( N_GND_M0_noxref_s N_D_c_975_n ) capacitor c=0.00655738f //x=0.495 \
 //y=0.37 //x2=0.74 //y2=2.085
cc_97 ( N_GND_c_9_p N_noxref_7_c_1135_n ) capacitor c=0.0116104f //x=19.24 \
 //y=0 //x2=11.725 //y2=3.33
cc_98 ( N_GND_c_74_p N_noxref_7_c_1135_n ) capacitor c=0.00157139f //x=10.93 \
 //y=0 //x2=11.725 //y2=3.33
cc_99 ( N_GND_c_99_p N_noxref_7_c_1135_n ) capacitor c=0.00110325f //x=11.645 \
 //y=0 //x2=11.725 //y2=3.33
cc_100 ( N_GND_c_100_p N_noxref_7_c_1135_n ) capacitor c=3.56654e-19 //x=12.13 \
 //y=0.535 //x2=11.725 //y2=3.33
cc_101 ( N_GND_c_6_p N_noxref_7_c_1135_n ) capacitor c=0.00820844f //x=11.1 \
 //y=0 //x2=11.725 //y2=3.33
cc_102 ( N_GND_M6_noxref_s N_noxref_7_c_1135_n ) capacitor c=0.00175408f \
 //x=11.595 //y=0.37 //x2=11.725 //y2=3.33
cc_103 ( N_GND_c_9_p N_noxref_7_c_1141_n ) capacitor c=0.00174211f //x=19.24 \
 //y=0 //x2=10.475 //y2=3.33
cc_104 ( N_GND_c_6_p N_noxref_7_c_1142_n ) capacitor c=0.0461206f //x=11.1 \
 //y=0 //x2=10.275 //y2=1.655
cc_105 ( N_GND_M6_noxref_s N_noxref_7_c_1142_n ) capacitor c=3.37896e-19 \
 //x=11.595 //y=0.37 //x2=10.275 //y2=1.655
cc_106 ( N_GND_c_5_p N_noxref_7_c_1144_n ) capacitor c=0.00101801f //x=7.77 \
 //y=0 //x2=10.36 //y2=3.33
cc_107 ( N_GND_c_9_p N_noxref_7_c_1145_n ) capacitor c=0.00184963f //x=19.24 \
 //y=0 //x2=11.84 //y2=2.085
cc_108 ( N_GND_c_100_p N_noxref_7_c_1145_n ) capacitor c=7.87839e-19 //x=12.13 \
 //y=0.535 //x2=11.84 //y2=2.085
cc_109 ( N_GND_c_6_p N_noxref_7_c_1145_n ) capacitor c=0.029021f //x=11.1 \
 //y=0 //x2=11.84 //y2=2.085
cc_110 ( N_GND_c_7_p N_noxref_7_c_1145_n ) capacitor c=0.00118911f //x=13.32 \
 //y=0 //x2=11.84 //y2=2.085
cc_111 ( N_GND_M6_noxref_s N_noxref_7_c_1145_n ) capacitor c=0.0109271f \
 //x=11.595 //y=0.37 //x2=11.84 //y2=2.085
cc_112 ( N_GND_c_100_p N_noxref_7_c_1150_n ) capacitor c=0.0123171f //x=12.13 \
 //y=0.535 //x2=11.95 //y2=0.91
cc_113 ( N_GND_M6_noxref_s N_noxref_7_c_1150_n ) capacitor c=0.0317792f \
 //x=11.595 //y=0.37 //x2=11.95 //y2=0.91
cc_114 ( N_GND_c_6_p N_noxref_7_c_1152_n ) capacitor c=0.00562003f //x=11.1 \
 //y=0 //x2=11.95 //y2=1.92
cc_115 ( N_GND_M6_noxref_s N_noxref_7_c_1153_n ) capacitor c=0.00489f \
 //x=11.595 //y=0.37 //x2=12.325 //y2=0.755
cc_116 ( N_GND_c_116_p N_noxref_7_c_1154_n ) capacitor c=0.0119174f //x=12.615 \
 //y=0.535 //x2=12.48 //y2=0.91
cc_117 ( N_GND_M6_noxref_s N_noxref_7_c_1154_n ) capacitor c=0.0143355f \
 //x=11.595 //y=0.37 //x2=12.48 //y2=0.91
cc_118 ( N_GND_M6_noxref_s N_noxref_7_c_1156_n ) capacitor c=0.0074042f \
 //x=11.595 //y=0.37 //x2=12.48 //y2=1.255
cc_119 ( N_GND_c_100_p N_noxref_7_c_1157_n ) capacitor c=2.1838e-19 //x=12.13 \
 //y=0.535 //x2=11.84 //y2=2.085
cc_120 ( N_GND_c_6_p N_noxref_7_c_1157_n ) capacitor c=0.0108179f //x=11.1 \
 //y=0 //x2=11.84 //y2=2.085
cc_121 ( N_GND_M6_noxref_s N_noxref_7_c_1157_n ) capacitor c=0.00655738f \
 //x=11.595 //y=0.37 //x2=11.84 //y2=2.085
cc_122 ( N_GND_c_5_p N_noxref_7_M5_noxref_d ) capacitor c=8.58106e-19 //x=7.77 \
 //y=0 //x2=9.73 //y2=0.905
cc_123 ( N_GND_c_6_p N_noxref_7_M5_noxref_d ) capacitor c=0.00616547f //x=11.1 \
 //y=0 //x2=9.73 //y2=0.905
cc_124 ( N_GND_M4_noxref_d N_noxref_7_M5_noxref_d ) capacitor c=0.00143464f \
 //x=8.76 //y=0.865 //x2=9.73 //y2=0.905
cc_125 ( N_GND_M6_noxref_s N_noxref_7_M5_noxref_d ) capacitor c=2.09402e-19 \
 //x=11.595 //y=0.37 //x2=9.73 //y2=0.905
cc_126 ( N_GND_c_9_p N_noxref_8_c_1274_n ) capacitor c=0.031779f //x=19.24 \
 //y=0 //x2=14.315 //y2=3.7
cc_127 ( N_GND_c_100_p N_noxref_8_c_1274_n ) capacitor c=6.67662e-19 //x=12.13 \
 //y=0.535 //x2=14.315 //y2=3.7
cc_128 ( N_GND_c_128_p N_noxref_8_c_1274_n ) capacitor c=8.65741e-19 \
 //x=14.415 //y=0.53 //x2=14.315 //y2=3.7
cc_129 ( N_GND_c_7_p N_noxref_8_c_1274_n ) capacitor c=0.00533016f //x=13.32 \
 //y=0 //x2=14.315 //y2=3.7
cc_130 ( N_GND_M6_noxref_s N_noxref_8_c_1274_n ) capacitor c=0.00141726f \
 //x=11.595 //y=0.37 //x2=14.315 //y2=3.7
cc_131 ( N_GND_M7_noxref_s N_noxref_8_c_1274_n ) capacitor c=0.00180297f \
 //x=13.88 //y=0.365 //x2=14.315 //y2=3.7
cc_132 ( N_GND_c_9_p N_noxref_8_c_1280_n ) capacitor c=0.00130393f //x=19.24 \
 //y=0 //x2=6.945 //y2=2.08
cc_133 ( N_GND_c_5_p N_noxref_8_c_1280_n ) capacitor c=0.0296841f //x=7.77 \
 //y=0 //x2=6.945 //y2=2.08
cc_134 ( N_GND_M3_noxref_s N_noxref_8_c_1280_n ) capacitor c=0.00967469f \
 //x=6.045 //y=0.37 //x2=6.945 //y2=2.08
cc_135 ( N_GND_c_4_p N_noxref_8_c_1283_n ) capacitor c=8.10282e-19 //x=5.55 \
 //y=0 //x2=7.03 //y2=3.7
cc_136 ( N_GND_c_9_p N_noxref_8_c_1284_n ) capacitor c=5.99511e-19 //x=19.24 \
 //y=0 //x2=14.43 //y2=2.08
cc_137 ( N_GND_c_128_p N_noxref_8_c_1284_n ) capacitor c=0.001353f //x=14.415 \
 //y=0.53 //x2=14.43 //y2=2.08
cc_138 ( N_GND_c_7_p N_noxref_8_c_1284_n ) capacitor c=0.0175793f //x=13.32 \
 //y=0 //x2=14.43 //y2=2.08
cc_139 ( N_GND_c_128_p N_noxref_8_c_1287_n ) capacitor c=0.0125775f //x=14.415 \
 //y=0.53 //x2=14.235 //y2=0.905
cc_140 ( N_GND_M7_noxref_s N_noxref_8_c_1287_n ) capacitor c=0.0318086f \
 //x=13.88 //y=0.365 //x2=14.235 //y2=0.905
cc_141 ( N_GND_c_128_p N_noxref_8_c_1289_n ) capacitor c=2.1838e-19 //x=14.415 \
 //y=0.53 //x2=14.235 //y2=1.915
cc_142 ( N_GND_c_7_p N_noxref_8_c_1289_n ) capacitor c=0.0114883f //x=13.32 \
 //y=0 //x2=14.235 //y2=1.915
cc_143 ( N_GND_M7_noxref_s N_noxref_8_c_1291_n ) capacitor c=0.00476652f \
 //x=13.88 //y=0.365 //x2=14.61 //y2=0.75
cc_144 ( N_GND_c_144_p N_noxref_8_c_1292_n ) capacitor c=0.0113311f //x=14.9 \
 //y=0.53 //x2=14.765 //y2=0.905
cc_145 ( N_GND_M7_noxref_s N_noxref_8_c_1292_n ) capacitor c=0.00514143f \
 //x=13.88 //y=0.365 //x2=14.765 //y2=0.905
cc_146 ( N_GND_M7_noxref_s N_noxref_8_c_1294_n ) capacitor c=8.33128e-19 \
 //x=13.88 //y=0.365 //x2=14.765 //y2=1.25
cc_147 ( N_GND_c_9_p N_noxref_8_M3_noxref_d ) capacitor c=0.00124113f \
 //x=19.24 //y=0 //x2=6.475 //y2=0.91
cc_148 ( N_GND_c_37_p N_noxref_8_M3_noxref_d ) capacitor c=0.0150482f //x=6.58 \
 //y=0.535 //x2=6.475 //y2=0.91
cc_149 ( N_GND_c_4_p N_noxref_8_M3_noxref_d ) capacitor c=0.00924905f //x=5.55 \
 //y=0 //x2=6.475 //y2=0.91
cc_150 ( N_GND_c_5_p N_noxref_8_M3_noxref_d ) capacitor c=0.00949241f //x=7.77 \
 //y=0 //x2=6.475 //y2=0.91
cc_151 ( N_GND_M3_noxref_s N_noxref_8_M3_noxref_d ) capacitor c=0.076995f \
 //x=6.045 //y=0.37 //x2=6.475 //y2=0.91
cc_152 ( N_GND_c_9_p N_Q_c_1438_n ) capacitor c=0.0143595f //x=19.24 //y=0 \
 //x2=17.645 //y2=3.33
cc_153 ( N_GND_c_153_p N_Q_c_1438_n ) capacitor c=0.00136402f //x=16.48 //y=0 \
 //x2=17.645 //y2=3.33
cc_154 ( N_GND_c_154_p N_Q_c_1438_n ) capacitor c=0.00136402f //x=17.26 //y=0 \
 //x2=17.645 //y2=3.33
cc_155 ( N_GND_c_155_p N_Q_c_1438_n ) capacitor c=0.00131941f //x=17.745 \
 //y=0.53 //x2=17.645 //y2=3.33
cc_156 ( N_GND_c_8_p N_Q_c_1438_n ) capacitor c=0.00820844f //x=16.65 //y=0 \
 //x2=17.645 //y2=3.33
cc_157 ( N_GND_M9_noxref_s N_Q_c_1438_n ) capacitor c=0.00234507f //x=17.21 \
 //y=0.365 //x2=17.645 //y2=3.33
cc_158 ( N_GND_c_9_p N_Q_c_1444_n ) capacitor c=0.0019231f //x=19.24 //y=0 \
 //x2=16.025 //y2=3.33
cc_159 ( N_GND_M7_noxref_s N_Q_c_1444_n ) capacitor c=6.85282e-19 //x=13.88 \
 //y=0.365 //x2=16.025 //y2=3.33
cc_160 ( N_GND_c_7_p Q ) capacitor c=0.00101801f //x=13.32 //y=0 //x2=15.91 \
 //y2=2.22
cc_161 ( N_GND_c_9_p N_Q_c_1447_n ) capacitor c=0.0025679f //x=19.24 //y=0 \
 //x2=15.385 //y2=1.655
cc_162 ( N_GND_c_144_p N_Q_c_1447_n ) capacitor c=0.00381844f //x=14.9 \
 //y=0.53 //x2=15.385 //y2=1.655
cc_163 ( N_GND_c_163_p N_Q_c_1447_n ) capacitor c=0.00320884f //x=15.385 \
 //y=0.53 //x2=15.385 //y2=1.655
cc_164 ( N_GND_M7_noxref_s N_Q_c_1447_n ) capacitor c=0.0172028f //x=13.88 \
 //y=0.365 //x2=15.385 //y2=1.655
cc_165 ( N_GND_c_9_p N_Q_c_1451_n ) capacitor c=0.00187416f //x=19.24 //y=0 \
 //x2=15.825 //y2=1.655
cc_166 ( N_GND_c_166_p N_Q_c_1451_n ) capacitor c=0.00477535f //x=15.87 \
 //y=0.53 //x2=15.825 //y2=1.655
cc_167 ( N_GND_c_8_p N_Q_c_1451_n ) capacitor c=0.0466045f //x=16.65 //y=0 \
 //x2=15.825 //y2=1.655
cc_168 ( N_GND_M7_noxref_s N_Q_c_1451_n ) capacitor c=0.0158743f //x=13.88 \
 //y=0.365 //x2=15.825 //y2=1.655
cc_169 ( N_GND_M9_noxref_s N_Q_c_1451_n ) capacitor c=3.16502e-19 //x=17.21 \
 //y=0.365 //x2=15.825 //y2=1.655
cc_170 ( N_GND_c_9_p N_Q_c_1456_n ) capacitor c=5.94416e-19 //x=19.24 //y=0 \
 //x2=17.76 //y2=2.08
cc_171 ( N_GND_c_155_p N_Q_c_1456_n ) capacitor c=0.00134863f //x=17.745 \
 //y=0.53 //x2=17.76 //y2=2.08
cc_172 ( N_GND_c_8_p N_Q_c_1456_n ) capacitor c=0.0175793f //x=16.65 //y=0 \
 //x2=17.76 //y2=2.08
cc_173 ( N_GND_c_155_p N_Q_c_1459_n ) capacitor c=0.0126019f //x=17.745 \
 //y=0.53 //x2=17.565 //y2=0.905
cc_174 ( N_GND_M9_noxref_s N_Q_c_1459_n ) capacitor c=0.0318086f //x=17.21 \
 //y=0.365 //x2=17.565 //y2=0.905
cc_175 ( N_GND_c_155_p N_Q_c_1461_n ) capacitor c=2.1838e-19 //x=17.745 \
 //y=0.53 //x2=17.565 //y2=1.915
cc_176 ( N_GND_c_8_p N_Q_c_1461_n ) capacitor c=0.0130778f //x=16.65 //y=0 \
 //x2=17.565 //y2=1.915
cc_177 ( N_GND_M9_noxref_s N_Q_c_1463_n ) capacitor c=0.00479092f //x=17.21 \
 //y=0.365 //x2=17.94 //y2=0.75
cc_178 ( N_GND_c_178_p N_Q_c_1464_n ) capacitor c=0.0113555f //x=18.23 \
 //y=0.53 //x2=18.095 //y2=0.905
cc_179 ( N_GND_M9_noxref_s N_Q_c_1464_n ) capacitor c=0.00514143f //x=17.21 \
 //y=0.365 //x2=18.095 //y2=0.905
cc_180 ( N_GND_M9_noxref_s N_Q_c_1466_n ) capacitor c=8.33128e-19 //x=17.21 \
 //y=0.365 //x2=18.095 //y2=1.25
cc_181 ( N_GND_c_9_p N_Q_M7_noxref_d ) capacitor c=0.00113207f //x=19.24 //y=0 \
 //x2=14.31 //y2=0.905
cc_182 ( N_GND_c_7_p N_Q_M7_noxref_d ) capacitor c=0.00416273f //x=13.32 //y=0 \
 //x2=14.31 //y2=0.905
cc_183 ( N_GND_c_8_p N_Q_M7_noxref_d ) capacitor c=2.57516e-19 //x=16.65 //y=0 \
 //x2=14.31 //y2=0.905
cc_184 ( N_GND_M7_noxref_s N_Q_M7_noxref_d ) capacitor c=0.0767815f //x=13.88 \
 //y=0.365 //x2=14.31 //y2=0.905
cc_185 ( N_GND_c_9_p N_Q_M8_noxref_d ) capacitor c=0.00132699f //x=19.24 //y=0 \
 //x2=15.28 //y2=0.905
cc_186 ( N_GND_c_8_p N_Q_M8_noxref_d ) capacitor c=0.00609243f //x=16.65 //y=0 \
 //x2=15.28 //y2=0.905
cc_187 ( N_GND_M7_noxref_s N_Q_M8_noxref_d ) capacitor c=0.0609676f //x=13.88 \
 //y=0.365 //x2=15.28 //y2=0.905
cc_188 ( N_GND_c_9_p N_noxref_10_c_1605_n ) capacitor c=0.0130137f //x=19.24 \
 //y=0 //x2=18.385 //y2=4.07
cc_189 ( N_GND_c_9_p N_noxref_10_c_1606_n ) capacitor c=0.00134271f //x=19.24 \
 //y=0 //x2=12.495 //y2=2.08
cc_190 ( N_GND_c_7_p N_noxref_10_c_1606_n ) capacitor c=0.0296841f //x=13.32 \
 //y=0 //x2=12.495 //y2=2.08
cc_191 ( N_GND_M6_noxref_s N_noxref_10_c_1606_n ) capacitor c=0.00988433f \
 //x=11.595 //y=0.37 //x2=12.495 //y2=2.08
cc_192 ( N_GND_c_6_p N_noxref_10_c_1609_n ) capacitor c=8.10282e-19 //x=11.1 \
 //y=0 //x2=12.58 //y2=4.07
cc_193 ( N_GND_c_8_p N_noxref_10_c_1610_n ) capacitor c=9.2064e-19 //x=16.65 \
 //y=0 //x2=18.5 //y2=2.08
cc_194 ( N_GND_c_1_p N_noxref_10_c_1610_n ) capacitor c=9.53263e-19 //x=19.285 \
 //y=0 //x2=18.5 //y2=2.08
cc_195 ( N_GND_c_195_p N_noxref_10_c_1612_n ) capacitor c=0.0110045f \
 //x=18.715 //y=0.53 //x2=18.535 //y2=0.905
cc_196 ( N_GND_M9_noxref_s N_noxref_10_c_1612_n ) capacitor c=0.00590563f \
 //x=17.21 //y=0.365 //x2=18.535 //y2=0.905
cc_197 ( N_GND_M9_noxref_s N_noxref_10_c_1614_n ) capacitor c=0.00469183f \
 //x=17.21 //y=0.365 //x2=18.91 //y2=0.75
cc_198 ( N_GND_M9_noxref_s N_noxref_10_c_1615_n ) capacitor c=0.00316186f \
 //x=17.21 //y=0.365 //x2=18.91 //y2=1.405
cc_199 ( N_GND_c_199_p N_noxref_10_c_1616_n ) capacitor c=0.0112564f //x=19.2 \
 //y=0.53 //x2=19.065 //y2=0.905
cc_200 ( N_GND_M9_noxref_s N_noxref_10_c_1616_n ) capacitor c=0.0142835f \
 //x=17.21 //y=0.365 //x2=19.065 //y2=0.905
cc_201 ( N_GND_c_9_p N_noxref_10_M6_noxref_d ) capacitor c=0.00132558f \
 //x=19.24 //y=0 //x2=12.025 //y2=0.91
cc_202 ( N_GND_c_100_p N_noxref_10_M6_noxref_d ) capacitor c=0.0151225f \
 //x=12.13 //y=0.535 //x2=12.025 //y2=0.91
cc_203 ( N_GND_c_6_p N_noxref_10_M6_noxref_d ) capacitor c=0.00924905f \
 //x=11.1 //y=0 //x2=12.025 //y2=0.91
cc_204 ( N_GND_c_7_p N_noxref_10_M6_noxref_d ) capacitor c=0.00949241f \
 //x=13.32 //y=0 //x2=12.025 //y2=0.91
cc_205 ( N_GND_M6_noxref_s N_noxref_10_M6_noxref_d ) capacitor c=0.076995f \
 //x=11.595 //y=0.37 //x2=12.025 //y2=0.91
cc_206 ( N_GND_c_9_p N_noxref_11_c_1767_n ) capacitor c=0.0190404f //x=19.24 \
 //y=0 //x2=19.125 //y2=3.7
cc_207 ( N_GND_M9_noxref_s N_noxref_11_c_1767_n ) capacitor c=6.25651e-19 \
 //x=17.21 //y=0.365 //x2=19.125 //y2=3.7
cc_208 ( N_GND_c_9_p N_noxref_11_c_1769_n ) capacitor c=0.00165161f //x=19.24 \
 //y=0 //x2=15.285 //y2=3.7
cc_209 ( N_GND_c_7_p N_noxref_11_c_1770_n ) capacitor c=9.2064e-19 //x=13.32 \
 //y=0 //x2=15.17 //y2=2.08