// File: FA.spi.pex
// Created: Tue Oct 15 15:48:52 2024
// Program "Calibre xRC"
// Version "v2023.2_27.15"
// Nominal Temperature: 30C
// Circuit Temperature: 30C
// 
simulator lang=spectre
subckt PM_FA\%GND ( 1 65 77 81 84 89 95 101 107 115 123 126 131 135 143 149 \
 157 161 164 169 173 181 189 197 205 208 213 217 220 225 229 237 245 248 253 \
 257 260 265 271 277 283 288 293 297 305 309 317 321 329 333 341 347 355 359 \
 370 373 384 387 389 401 413 415 417 429 431 443 446 458 478 490 491 492 493 \
 494 495 496 497 498 499 500 501 502 503 )
c557 ( 503 0 ) capacitor c=0.0600324f //x=37.125 //y=0.37
c558 ( 502 0 ) capacitor c=0.0699409f //x=33.86 //y=0.365
c559 ( 501 0 ) capacitor c=0.0572693f //x=31.575 //y=0.37
c560 ( 500 0 ) capacitor c=0.0207059f //x=28.74 //y=0.865
c561 ( 499 0 ) capacitor c=0.0562168f //x=26.025 //y=0.37
c562 ( 498 0 ) capacitor c=0.0207059f //x=23.19 //y=0.865
c563 ( 497 0 ) capacitor c=0.0561333f //x=20.475 //y=0.37
c564 ( 496 0 ) capacitor c=0.0209533f //x=17.64 //y=0.87
c565 ( 495 0 ) capacitor c=0.0209533f //x=14.31 //y=0.87
c566 ( 494 0 ) capacitor c=0.0561333f //x=11.595 //y=0.37
c567 ( 493 0 ) capacitor c=0.0561333f //x=9.375 //y=0.37
c568 ( 492 0 ) capacitor c=0.0209533f //x=6.54 //y=0.87
c569 ( 491 0 ) capacitor c=0.0209533f //x=3.21 //y=0.87
c570 ( 490 0 ) capacitor c=0.0582156f //x=0.495 //y=0.37
c571 ( 478 0 ) capacitor c=0.0992376f //x=36.63 //y=0
c572 ( 458 0 ) capacitor c=0.102761f //x=33.3 //y=0
c573 ( 446 0 ) capacitor c=0.0997852f //x=31.08 //y=0
c574 ( 445 0 ) capacitor c=0.00440095f //x=28.86 //y=0
c575 ( 443 0 ) capacitor c=0.100398f //x=27.75 //y=0
c576 ( 431 0 ) capacitor c=0.100609f //x=25.53 //y=0
c577 ( 430 0 ) capacitor c=0.00440095f //x=23.38 //y=0
c578 ( 429 0 ) capacitor c=0.0986577f //x=22.2 //y=0
c579 ( 417 0 ) capacitor c=0.100431f //x=19.98 //y=0
c580 ( 416 0 ) capacitor c=0.0044012f //x=17.83 //y=0
c581 ( 415 0 ) capacitor c=0.103425f //x=16.65 //y=0
c582 ( 414 0 ) capacitor c=0.0044012f //x=14.5 //y=0
c583 ( 413 0 ) capacitor c=0.0998974f //x=13.32 //y=0
c584 ( 401 0 ) capacitor c=0.0921731f //x=11.1 //y=0
c585 ( 389 0 ) capacitor c=0.101392f //x=8.88 //y=0
c586 ( 388 0 ) capacitor c=0.0044012f //x=6.73 //y=0
c587 ( 387 0 ) capacitor c=0.10347f //x=5.55 //y=0
c588 ( 386 0 ) capacitor c=0.0044012f //x=3.33 //y=0
c589 ( 384 0 ) capacitor c=0.100929f //x=2.22 //y=0
c590 ( 373 0 ) capacitor c=0.192382f //x=0.63 //y=0
c591 ( 370 0 ) capacitor c=0.198211f //x=38.48 //y=0
c592 ( 368 0 ) capacitor c=0.0360689f //x=38.315 //y=0
c593 ( 362 0 ) capacitor c=0.00587411f //x=38.23 //y=0.45
c594 ( 359 0 ) capacitor c=0.00542558f //x=38.145 //y=0.535
c595 ( 358 0 ) capacitor c=0.00479856f //x=37.745 //y=0.45
c596 ( 355 0 ) capacitor c=0.0068422f //x=37.66 //y=0.535
c597 ( 350 0 ) capacitor c=0.00592191f //x=37.26 //y=0.45
c598 ( 347 0 ) capacitor c=0.0164879f //x=37.175 //y=0
c599 ( 342 0 ) capacitor c=0.0660122f //x=36.02 //y=0
c600 ( 341 0 ) capacitor c=0.0195795f //x=36.46 //y=0
c601 ( 336 0 ) capacitor c=0.00609805f //x=35.935 //y=0.445
c602 ( 333 0 ) capacitor c=0.00508468f //x=35.85 //y=0.53
c603 ( 332 0 ) capacitor c=0.00468234f //x=35.45 //y=0.445
c604 ( 329 0 ) capacitor c=0.00551137f //x=35.365 //y=0.53
c605 ( 324 0 ) capacitor c=0.00468234f //x=34.965 //y=0.445
c606 ( 321 0 ) capacitor c=0.00533847f //x=34.88 //y=0.53
c607 ( 320 0 ) capacitor c=0.00468234f //x=34.48 //y=0.445
c608 ( 317 0 ) capacitor c=0.00625032f //x=34.395 //y=0.53
c609 ( 312 0 ) capacitor c=0.00609805f //x=33.995 //y=0.445
c610 ( 309 0 ) capacitor c=0.0195795f //x=33.91 //y=0
c611 ( 306 0 ) capacitor c=0.0360881f //x=32.765 //y=0
c612 ( 305 0 ) capacitor c=0.0160123f //x=33.13 //y=0
c613 ( 300 0 ) capacitor c=0.00583665f //x=32.68 //y=0.45
c614 ( 297 0 ) capacitor c=0.00531808f //x=32.595 //y=0.535
c615 ( 296 0 ) capacitor c=0.00479856f //x=32.195 //y=0.45
c616 ( 293 0 ) capacitor c=0.006266f //x=32.11 //y=0.535
c617 ( 288 0 ) capacitor c=0.00588377f //x=31.71 //y=0.45
c618 ( 283 0 ) capacitor c=0.0164879f //x=31.625 //y=0
c619 ( 277 0 ) capacitor c=0.0718128f //x=30.91 //y=0
c620 ( 271 0 ) capacitor c=0.038871f //x=28.845 //y=0
c621 ( 266 0 ) capacitor c=0.0360821f //x=27.215 //y=0
c622 ( 265 0 ) capacitor c=0.0160123f //x=27.58 //y=0
c623 ( 260 0 ) capacitor c=0.00583665f //x=27.13 //y=0.45
c624 ( 257 0 ) capacitor c=0.0051464f //x=27.045 //y=0.535
c625 ( 256 0 ) capacitor c=0.00479856f //x=26.645 //y=0.45
c626 ( 253 0 ) capacitor c=0.00591695f //x=26.56 //y=0.535
c627 ( 248 0 ) capacitor c=0.00588377f //x=26.16 //y=0.45
c628 ( 245 0 ) capacitor c=0.0164879f //x=26.075 //y=0
c629 ( 237 0 ) capacitor c=0.071756f //x=25.36 //y=0
c630 ( 229 0 ) capacitor c=0.038871f //x=23.295 //y=0
c631 ( 226 0 ) capacitor c=0.0360821f //x=21.655 //y=0
c632 ( 225 0 ) capacitor c=0.0164879f //x=22.03 //y=0
c633 ( 220 0 ) capacitor c=0.00588377f //x=21.57 //y=0.45
c634 ( 217 0 ) capacitor c=0.00591695f //x=21.485 //y=0.535
c635 ( 216 0 ) capacitor c=0.00479856f //x=21.085 //y=0.45
c636 ( 213 0 ) capacitor c=0.0051464f //x=21 //y=0.535
c637 ( 208 0 ) capacitor c=0.00587411f //x=20.6 //y=0.45
c638 ( 205 0 ) capacitor c=0.0160123f //x=20.515 //y=0
c639 ( 197 0 ) capacitor c=0.0719474f //x=19.81 //y=0
c640 ( 189 0 ) capacitor c=0.0388897f //x=17.745 //y=0
c641 ( 181 0 ) capacitor c=0.0719474f //x=16.48 //y=0
c642 ( 173 0 ) capacitor c=0.0388897f //x=14.415 //y=0
c643 ( 170 0 ) capacitor c=0.0360821f //x=12.785 //y=0
c644 ( 169 0 ) capacitor c=0.0160123f //x=13.15 //y=0
c645 ( 164 0 ) capacitor c=0.00587411f //x=12.7 //y=0.45
c646 ( 161 0 ) capacitor c=0.0051464f //x=12.615 //y=0.535
c647 ( 160 0 ) capacitor c=0.00479856f //x=12.215 //y=0.45
c648 ( 157 0 ) capacitor c=0.00591695f //x=12.13 //y=0.535
c649 ( 152 0 ) capacitor c=0.00592191f //x=11.73 //y=0.45
c650 ( 149 0 ) capacitor c=0.0164879f //x=11.645 //y=0
c651 ( 144 0 ) capacitor c=0.0360821f //x=10.555 //y=0
c652 ( 143 0 ) capacitor c=0.0164879f //x=10.93 //y=0
c653 ( 138 0 ) capacitor c=0.00592191f //x=10.47 //y=0.45
c654 ( 135 0 ) capacitor c=0.00591695f //x=10.385 //y=0.535
c655 ( 134 0 ) capacitor c=0.00479856f //x=9.985 //y=0.45
c656 ( 131 0 ) capacitor c=0.0051464f //x=9.9 //y=0.535
c657 ( 126 0 ) capacitor c=0.00587411f //x=9.5 //y=0.45
c658 ( 123 0 ) capacitor c=0.0160123f //x=9.415 //y=0
c659 ( 115 0 ) capacitor c=0.0719474f //x=8.71 //y=0
c660 ( 107 0 ) capacitor c=0.0388897f //x=6.645 //y=0
c661 ( 101 0 ) capacitor c=0.0719474f //x=5.38 //y=0
c662 ( 95 0 ) capacitor c=0.0389232f //x=3.315 //y=0
c663 ( 90 0 ) capacitor c=0.0360673f //x=1.685 //y=0
c664 ( 89 0 ) capacitor c=0.0160123f //x=2.05 //y=0
c665 ( 84 0 ) capacitor c=0.00587411f //x=1.6 //y=0.45
c666 ( 81 0 ) capacitor c=0.00534353f //x=1.515 //y=0.535
c667 ( 80 0 ) capacitor c=0.00479856f //x=1.115 //y=0.45
c668 ( 77 0 ) capacitor c=0.00707849f //x=1.03 //y=0.535
c669 ( 72 0 ) capacitor c=0.00592191f //x=0.63 //y=0.45
c670 ( 65 0 ) capacitor c=1.233f //x=38.48 //y=0
r671 (  482 483 ) resistor r=17.3894 //w=0.357 //l=0.485 //layer=li \
 //thickness=0.1 //x=37.745 //y=0 //x2=38.23 //y2=0
r672 (  481 482 ) resistor r=0.179272 //w=0.357 //l=0.005 //layer=li \
 //thickness=0.1 //x=37.74 //y=0 //x2=37.745 //y2=0
r673 (  479 481 ) resistor r=17.2101 //w=0.357 //l=0.48 //layer=li \
 //thickness=0.1 //x=37.26 //y=0 //x2=37.74 //y2=0
r674 (  466 467 ) resistor r=17.3894 //w=0.357 //l=0.485 //layer=li \
 //thickness=0.1 //x=35.45 //y=0 //x2=35.935 //y2=0
r675 (  465 466 ) resistor r=10.7563 //w=0.357 //l=0.3 //layer=li \
 //thickness=0.1 //x=35.15 //y=0 //x2=35.45 //y2=0
r676 (  463 465 ) resistor r=6.63305 //w=0.357 //l=0.185 //layer=li \
 //thickness=0.1 //x=34.965 //y=0 //x2=35.15 //y2=0
r677 (  462 463 ) resistor r=17.3894 //w=0.357 //l=0.485 //layer=li \
 //thickness=0.1 //x=34.48 //y=0 //x2=34.965 //y2=0
r678 (  461 462 ) resistor r=15.7759 //w=0.357 //l=0.44 //layer=li \
 //thickness=0.1 //x=34.04 //y=0 //x2=34.48 //y2=0
r679 (  459 461 ) resistor r=1.61345 //w=0.357 //l=0.045 //layer=li \
 //thickness=0.1 //x=33.995 //y=0 //x2=34.04 //y2=0
r680 (  450 451 ) resistor r=4.30252 //w=0.357 //l=0.12 //layer=li \
 //thickness=0.1 //x=32.56 //y=0 //x2=32.68 //y2=0
r681 (  448 450 ) resistor r=13.0868 //w=0.357 //l=0.365 //layer=li \
 //thickness=0.1 //x=32.195 //y=0 //x2=32.56 //y2=0
r682 (  447 448 ) resistor r=17.3894 //w=0.357 //l=0.485 //layer=li \
 //thickness=0.1 //x=31.71 //y=0 //x2=32.195 //y2=0
r683 (  435 436 ) resistor r=17.3894 //w=0.357 //l=0.485 //layer=li \
 //thickness=0.1 //x=26.645 //y=0 //x2=27.13 //y2=0
r684 (  434 435 ) resistor r=13.4454 //w=0.357 //l=0.375 //layer=li \
 //thickness=0.1 //x=26.27 //y=0 //x2=26.645 //y2=0
r685 (  432 434 ) resistor r=3.94398 //w=0.357 //l=0.11 //layer=li \
 //thickness=0.1 //x=26.16 //y=0 //x2=26.27 //y2=0
r686 (  421 422 ) resistor r=17.2101 //w=0.357 //l=0.48 //layer=li \
 //thickness=0.1 //x=21.09 //y=0 //x2=21.57 //y2=0
r687 (  419 421 ) resistor r=0.179272 //w=0.357 //l=0.005 //layer=li \
 //thickness=0.1 //x=21.085 //y=0 //x2=21.09 //y2=0
r688 (  418 419 ) resistor r=17.3894 //w=0.357 //l=0.485 //layer=li \
 //thickness=0.1 //x=20.6 //y=0 //x2=21.085 //y2=0
r689 (  405 406 ) resistor r=17.3894 //w=0.357 //l=0.485 //layer=li \
 //thickness=0.1 //x=12.215 //y=0 //x2=12.7 //y2=0
r690 (  404 405 ) resistor r=0.179272 //w=0.357 //l=0.005 //layer=li \
 //thickness=0.1 //x=12.21 //y=0 //x2=12.215 //y2=0
r691 (  402 404 ) resistor r=17.2101 //w=0.357 //l=0.48 //layer=li \
 //thickness=0.1 //x=11.73 //y=0 //x2=12.21 //y2=0
r692 (  393 394 ) resistor r=17.3894 //w=0.357 //l=0.485 //layer=li \
 //thickness=0.1 //x=9.985 //y=0 //x2=10.47 //y2=0
r693 (  392 393 ) resistor r=13.0868 //w=0.357 //l=0.365 //layer=li \
 //thickness=0.1 //x=9.62 //y=0 //x2=9.985 //y2=0
r694 (  390 392 ) resistor r=4.30252 //w=0.357 //l=0.12 //layer=li \
 //thickness=0.1 //x=9.5 //y=0 //x2=9.62 //y2=0
r695 (  376 377 ) resistor r=17.3894 //w=0.357 //l=0.485 //layer=li \
 //thickness=0.1 //x=1.115 //y=0 //x2=1.6 //y2=0
r696 (  375 376 ) resistor r=13.4454 //w=0.357 //l=0.375 //layer=li \
 //thickness=0.1 //x=0.74 //y=0 //x2=1.115 //y2=0
r697 (  373 375 ) resistor r=3.94398 //w=0.357 //l=0.11 //layer=li \
 //thickness=0.1 //x=0.63 //y=0 //x2=0.74 //y2=0
r698 (  368 483 ) resistor r=3.04762 //w=0.357 //l=0.085 //layer=li \
 //thickness=0.1 //x=38.315 //y=0 //x2=38.23 //y2=0
r699 (  368 370 ) resistor r=5.91597 //w=0.357 //l=0.165 //layer=li \
 //thickness=0.1 //x=38.315 //y=0 //x2=38.48 //y2=0
r700 (  363 503 ) resistor r=5.4201 //w=0.17 //l=0.085 //layer=li \
 //thickness=0.1 //x=38.23 //y=0.62 //x2=38.23 //y2=0.535
r701 (  363 503 ) resistor r=41.4118 //w=0.187 //l=0.605 //layer=li \
 //thickness=0.1 //x=38.23 //y=0.62 //x2=38.23 //y2=1.225
r702 (  362 503 ) resistor r=5.4201 //w=0.17 //l=0.085 //layer=li \
 //thickness=0.1 //x=38.23 //y=0.45 //x2=38.23 //y2=0.535
r703 (  361 483 ) resistor r=5.03728 //w=0.34 //l=0.17 //layer=li \
 //thickness=0.1 //x=38.23 //y=0.17 //x2=38.23 //y2=0
r704 (  361 362 ) resistor r=19.1658 //w=0.187 //l=0.28 //layer=li \
 //thickness=0.1 //x=38.23 //y=0.17 //x2=38.23 //y2=0.45
r705 (  360 503 ) resistor r=5.4201 //w=0.17 //l=0.085 //layer=li \
 //thickness=0.1 //x=37.83 //y=0.535 //x2=37.745 //y2=0.535
r706 (  359 503 ) resistor r=1.40859 //w=0.34 //l=0.085 //layer=li \
 //thickness=0.1 //x=38.145 //y=0.535 //x2=38.23 //y2=0.535
r707 (  359 360 ) resistor r=21.5615 //w=0.187 //l=0.315 //layer=li \
 //thickness=0.1 //x=38.145 //y=0.535 //x2=37.83 //y2=0.535
r708 (  358 503 ) resistor r=1.40859 //w=0.34 //l=0.085 //layer=li \
 //thickness=0.1 //x=37.745 //y=0.45 //x2=37.745 //y2=0.535
r709 (  357 482 ) resistor r=5.03728 //w=0.34 //l=0.17 //layer=li \
 //thickness=0.1 //x=37.745 //y=0.17 //x2=37.745 //y2=0
r710 (  357 358 ) resistor r=19.1658 //w=0.187 //l=0.28 //layer=li \
 //thickness=0.1 //x=37.745 //y=0.17 //x2=37.745 //y2=0.45
r711 (  356 503 ) resistor r=1.40859 //w=0.34 //l=0.085 //layer=li \
 //thickness=0.1 //x=37.345 //y=0.535 //x2=37.26 //y2=0.535
r712 (  355 503 ) resistor r=5.4201 //w=0.17 //l=0.085 //layer=li \
 //thickness=0.1 //x=37.66 //y=0.535 //x2=37.745 //y2=0.535
r713 (  355 356 ) resistor r=21.5615 //w=0.187 //l=0.315 //layer=li \
 //thickness=0.1 //x=37.66 //y=0.535 //x2=37.345 //y2=0.535
r714 (  351 503 ) resistor r=5.4201 //w=0.17 //l=0.085 //layer=li \
 //thickness=0.1 //x=37.26 //y=0.62 //x2=37.26 //y2=0.535
r715 (  351 503 ) resistor r=41.4118 //w=0.187 //l=0.605 //layer=li \
 //thickness=0.1 //x=37.26 //y=0.62 //x2=37.26 //y2=1.225
r716 (  350 503 ) resistor r=5.4201 //w=0.17 //l=0.085 //layer=li \
 //thickness=0.1 //x=37.26 //y=0.45 //x2=37.26 //y2=0.535
r717 (  349 479 ) resistor r=5.03728 //w=0.34 //l=0.17 //layer=li \
 //thickness=0.1 //x=37.26 //y=0.17 //x2=37.26 //y2=0
r718 (  349 350 ) resistor r=19.1658 //w=0.187 //l=0.28 //layer=li \
 //thickness=0.1 //x=37.26 //y=0.17 //x2=37.26 //y2=0.45
r719 (  348 478 ) resistor r=5.4201 //w=0.34 //l=0.17 //layer=li \
 //thickness=0.1 //x=36.8 //y=0 //x2=36.63 //y2=0
r720 (  347 479 ) resistor r=3.04762 //w=0.357 //l=0.085 //layer=li \
 //thickness=0.1 //x=37.175 //y=0 //x2=37.26 //y2=0
r721 (  347 348 ) resistor r=13.4454 //w=0.357 //l=0.375 //layer=li \
 //thickness=0.1 //x=37.175 //y=0 //x2=36.8 //y2=0
r722 (  342 467 ) resistor r=3.04762 //w=0.357 //l=0.085 //layer=li \
 //thickness=0.1 //x=36.02 //y=0 //x2=35.935 //y2=0
r723 (  342 344 ) resistor r=8.60504 //w=0.357 //l=0.24 //layer=li \
 //thickness=0.1 //x=36.02 //y=0 //x2=36.26 //y2=0
r724 (  341 478 ) resistor r=5.4201 //w=0.34 //l=0.17 //layer=li \
 //thickness=0.1 //x=36.46 //y=0 //x2=36.63 //y2=0
r725 (  341 344 ) resistor r=7.17087 //w=0.357 //l=0.2 //layer=li \
 //thickness=0.1 //x=36.46 //y=0 //x2=36.26 //y2=0
r726 (  337 502 ) resistor r=5.4201 //w=0.17 //l=0.085 //layer=li \
 //thickness=0.1 //x=35.935 //y=0.615 //x2=35.935 //y2=0.53
r727 (  337 502 ) resistor r=18.139 //w=0.187 //l=0.265 //layer=li \
 //thickness=0.1 //x=35.935 //y=0.615 //x2=35.935 //y2=0.88
r728 (  336 502 ) resistor r=5.4201 //w=0.17 //l=0.085 //layer=li \
 //thickness=0.1 //x=35.935 //y=0.445 //x2=35.935 //y2=0.53
r729 (  335 467 ) resistor r=5.03728 //w=0.34 //l=0.17 //layer=li \
 //thickness=0.1 //x=35.935 //y=0.17 //x2=35.935 //y2=0
r730 (  335 336 ) resistor r=18.8235 //w=0.187 //l=0.275 //layer=li \
 //thickness=0.1 //x=35.935 //y=0.17 //x2=35.935 //y2=0.445
r731 (  334 502 ) resistor r=5.4201 //w=0.17 //l=0.085 //layer=li \
 //thickness=0.1 //x=35.535 //y=0.53 //x2=35.45 //y2=0.53
r732 (  333 502 ) resistor r=1.40859 //w=0.34 //l=0.085 //layer=li \
 //thickness=0.1 //x=35.85 //y=0.53 //x2=35.935 //y2=0.53
r733 (  333 334 ) resistor r=21.5615 //w=0.187 //l=0.315 //layer=li \
 //thickness=0.1 //x=35.85 //y=0.53 //x2=35.535 //y2=0.53
r734 (  332 502 ) resistor r=1.40859 //w=0.34 //l=0.085 //layer=li \
 //thickness=0.1 //x=35.45 //y=0.445 //x2=35.45 //y2=0.53
r735 (  331 466 ) resistor r=5.03728 //w=0.34 //l=0.17 //layer=li \
 //thickness=0.1 //x=35.45 //y=0.17 //x2=35.45 //y2=0
r736 (  331 332 ) resistor r=18.8235 //w=0.187 //l=0.275 //layer=li \
 //thickness=0.1 //x=35.45 //y=0.17 //x2=35.45 //y2=0.445
r737 (  330 502 ) resistor r=6.4 //w=0.17 //l=0.085 //layer=li //thickness=0.1 \
 //x=35.05 //y=0.53 //x2=34.965 //y2=0.53
r738 (  329 502 ) resistor r=5.4201 //w=0.17 //l=0.085 //layer=li \
 //thickness=0.1 //x=35.365 //y=0.53 //x2=35.45 //y2=0.53
r739 (  329 330 ) resistor r=21.5615 //w=0.187 //l=0.315 //layer=li \
 //thickness=0.1 //x=35.365 //y=0.53 //x2=35.05 //y2=0.53
r740 (  325 502 ) resistor r=6.4 //w=0.17 //l=0.085 //layer=li //thickness=0.1 \
 //x=34.965 //y=0.615 //x2=34.965 //y2=0.53
r741 (  325 502 ) resistor r=18.139 //w=0.187 //l=0.265 //layer=li \
 //thickness=0.1 //x=34.965 //y=0.615 //x2=34.965 //y2=0.88
r742 (  324 502 ) resistor r=6.4 //w=0.17 //l=0.085 //layer=li //thickness=0.1 \
 //x=34.965 //y=0.445 //x2=34.965 //y2=0.53
r743 (  323 463 ) resistor r=5.03728 //w=0.34 //l=0.17 //layer=li \
 //thickness=0.1 //x=34.965 //y=0.17 //x2=34.965 //y2=0
r744 (  323 324 ) resistor r=18.8235 //w=0.187 //l=0.275 //layer=li \
 //thickness=0.1 //x=34.965 //y=0.17 //x2=34.965 //y2=0.445
r745 (  322 502 ) resistor r=5.4201 //w=0.17 //l=0.085 //layer=li \
 //thickness=0.1 //x=34.565 //y=0.53 //x2=34.48 //y2=0.53
r746 (  321 502 ) resistor r=6.4 //w=0.17 //l=0.085 //layer=li //thickness=0.1 \
 //x=34.88 //y=0.53 //x2=34.965 //y2=0.53
r747 (  321 322 ) resistor r=21.5615 //w=0.187 //l=0.315 //layer=li \
 //thickness=0.1 //x=34.88 //y=0.53 //x2=34.565 //y2=0.53
r748 (  320 502 ) resistor r=1.40859 //w=0.34 //l=0.085 //layer=li \
 //thickness=0.1 //x=34.48 //y=0.445 //x2=34.48 //y2=0.53
r749 (  319 462 ) resistor r=5.03728 //w=0.34 //l=0.17 //layer=li \
 //thickness=0.1 //x=34.48 //y=0.17 //x2=34.48 //y2=0
r750 (  319 320 ) resistor r=18.8235 //w=0.187 //l=0.275 //layer=li \
 //thickness=0.1 //x=34.48 //y=0.17 //x2=34.48 //y2=0.445
r751 (  318 502 ) resistor r=1.40859 //w=0.34 //l=0.085 //layer=li \
 //thickness=0.1 //x=34.08 //y=0.53 //x2=33.995 //y2=0.53
r752 (  317 502 ) resistor r=5.4201 //w=0.17 //l=0.085 //layer=li \
 //thickness=0.1 //x=34.395 //y=0.53 //x2=34.48 //y2=0.53
r753 (  317 318 ) resistor r=21.5615 //w=0.187 //l=0.315 //layer=li \
 //thickness=0.1 //x=34.395 //y=0.53 //x2=34.08 //y2=0.53
r754 (  313 502 ) resistor r=5.4201 //w=0.17 //l=0.085 //layer=li \
 //thickness=0.1 //x=33.995 //y=0.615 //x2=33.995 //y2=0.53
r755 (  313 502 ) resistor r=41.4118 //w=0.187 //l=0.605 //layer=li \
 //thickness=0.1 //x=33.995 //y=0.615 //x2=33.995 //y2=1.22
r756 (  312 502 ) resistor r=5.4201 //w=0.17 //l=0.085 //layer=li \
 //thickness=0.1 //x=33.995 //y=0.445 //x2=33.995 //y2=0.53
r757 (  311 459 ) resistor r=5.03728 //w=0.34 //l=0.17 //layer=li \
 //thickness=0.1 //x=33.995 //y=0.17 //x2=33.995 //y2=0
r758 (  311 312 ) resistor r=18.8235 //w=0.187 //l=0.275 //layer=li \
 //thickness=0.1 //x=33.995 //y=0.17 //x2=33.995 //y2=0.445
r759 (  310 458 ) resistor r=5.4201 //w=0.34 //l=0.17 //layer=li \
 //thickness=0.1 //x=33.47 //y=0 //x2=33.3 //y2=0
r760 (  309 459 ) resistor r=3.04762 //w=0.357 //l=0.085 //layer=li \
 //thickness=0.1 //x=33.91 //y=0 //x2=33.995 //y2=0
r761 (  309 310 ) resistor r=15.7759 //w=0.357 //l=0.44 //layer=li \
 //thickness=0.1 //x=33.91 //y=0 //x2=33.47 //y2=0
r762 (  306 451 ) resistor r=3.04762 //w=0.357 //l=0.085 //layer=li \
 //thickness=0.1 //x=32.765 //y=0 //x2=32.68 //y2=0
r763 (  305 458 ) resistor r=5.4201 //w=0.34 //l=0.17 //layer=li \
 //thickness=0.1 //x=33.13 //y=0 //x2=33.3 //y2=0
r764 (  305 306 ) resistor r=13.0868 //w=0.357 //l=0.365 //layer=li \
 //thickness=0.1 //x=33.13 //y=0 //x2=32.765 //y2=0
r765 (  301 501 ) resistor r=5.4201 //w=0.17 //l=0.085 //layer=li \
 //thickness=0.1 //x=32.68 //y=0.62 //x2=32.68 //y2=0.535
r766 (  301 501 ) resistor r=41.4118 //w=0.187 //l=0.605 //layer=li \
 //thickness=0.1 //x=32.68 //y=0.62 //x2=32.68 //y2=1.225
r767 (  300 501 ) resistor r=5.4201 //w=0.17 //l=0.085 //layer=li \
 //thickness=0.1 //x=32.68 //y=0.45 //x2=32.68 //y2=0.535
r768 (  299 451 ) resistor r=5.03728 //w=0.34 //l=0.17 //layer=li \
 //thickness=0.1 //x=32.68 //y=0.17 //x2=32.68 //y2=0
r769 (  299 300 ) resistor r=19.1658 //w=0.187 //l=0.28 //layer=li \
 //thickness=0.1 //x=32.68 //y=0.17 //x2=32.68 //y2=0.45
r770 (  298 501 ) resistor r=5.4201 //w=0.17 //l=0.085 //layer=li \
 //thickness=0.1 //x=32.28 //y=0.535 //x2=32.195 //y2=0.535
r771 (  297 501 ) resistor r=1.40859 //w=0.34 //l=0.085 //layer=li \
 //thickness=0.1 //x=32.595 //y=0.535 //x2=32.68 //y2=0.535
r772 (  297 298 ) resistor r=21.5615 //w=0.187 //l=0.315 //layer=li \
 //thickness=0.1 //x=32.595 //y=0.535 //x2=32.28 //y2=0.535
r773 (  296 501 ) resistor r=1.40859 //w=0.34 //l=0.085 //layer=li \
 //thickness=0.1 //x=32.195 //y=0.45 //x2=32.195 //y2=0.535
r774 (  295 448 ) resistor r=5.03728 //w=0.34 //l=0.17 //layer=li \
 //thickness=0.1 //x=32.195 //y=0.17 //x2=32.195 //y2=0
r775 (  295 296 ) resistor r=19.1658 //w=0.187 //l=0.28 //layer=li \
 //thickness=0.1 //x=32.195 //y=0.17 //x2=32.195 //y2=0.45
r776 (  294 501 ) resistor r=1.40859 //w=0.34 //l=0.085 //layer=li \
 //thickness=0.1 //x=31.795 //y=0.535 //x2=31.71 //y2=0.535
r777 (  293 501 ) resistor r=5.4201 //w=0.17 //l=0.085 //layer=li \
 //thickness=0.1 //x=32.11 //y=0.535 //x2=32.195 //y2=0.535
r778 (  293 294 ) resistor r=21.5615 //w=0.187 //l=0.315 //layer=li \
 //thickness=0.1 //x=32.11 //y=0.535 //x2=31.795 //y2=0.535
r779 (  289 501 ) resistor r=5.4201 //w=0.17 //l=0.085 //layer=li \
 //thickness=0.1 //x=31.71 //y=0.62 //x2=31.71 //y2=0.535
r780 (  289 501 ) resistor r=41.4118 //w=0.187 //l=0.605 //layer=li \
 //thickness=0.1 //x=31.71 //y=0.62 //x2=31.71 //y2=1.225
r781 (  288 501 ) resistor r=5.4201 //w=0.17 //l=0.085 //layer=li \
 //thickness=0.1 //x=31.71 //y=0.45 //x2=31.71 //y2=0.535
r782 (  287 447 ) resistor r=5.03728 //w=0.34 //l=0.17 //layer=li \
 //thickness=0.1 //x=31.71 //y=0.17 //x2=31.71 //y2=0
r783 (  287 288 ) resistor r=19.1658 //w=0.187 //l=0.28 //layer=li \
 //thickness=0.1 //x=31.71 //y=0.17 //x2=31.71 //y2=0.45
r784 (  284 446 ) resistor r=5.4201 //w=0.34 //l=0.17 //layer=li \
 //thickness=0.1 //x=31.25 //y=0 //x2=31.08 //y2=0
r785 (  284 286 ) resistor r=7.17087 //w=0.357 //l=0.2 //layer=li \
 //thickness=0.1 //x=31.25 //y=0 //x2=31.45 //y2=0
r786 (  283 447 ) resistor r=3.04762 //w=0.357 //l=0.085 //layer=li \
 //thickness=0.1 //x=31.625 //y=0 //x2=31.71 //y2=0
r787 (  283 286 ) resistor r=6.27451 //w=0.357 //l=0.175 //layer=li \
 //thickness=0.1 //x=31.625 //y=0 //x2=31.45 //y2=0
r788 (  278 445 ) resistor r=2.94794 //w=0.34 //l=0.085 //layer=li \
 //thickness=0.1 //x=29.015 //y=0 //x2=28.93 //y2=0
r789 (  278 280 ) resistor r=34.2409 //w=0.357 //l=0.955 //layer=li \
 //thickness=0.1 //x=29.015 //y=0 //x2=29.97 //y2=0
r790 (  277 446 ) resistor r=5.4201 //w=0.34 //l=0.17 //layer=li \
 //thickness=0.1 //x=30.91 //y=0 //x2=31.08 //y2=0
r791 (  277 280 ) resistor r=33.7031 //w=0.357 //l=0.94 //layer=li \
 //thickness=0.1 //x=30.91 //y=0 //x2=29.97 //y2=0
r792 (  273 445 ) resistor r=4.11603 //w=0.68 //l=0.17 //layer=li \
 //thickness=0.1 //x=28.93 //y=0.17 //x2=28.93 //y2=0
r793 (  273 500 ) resistor r=53.7326 //w=0.187 //l=0.785 //layer=li \
 //thickness=0.1 //x=28.93 //y=0.17 //x2=28.93 //y2=0.955
r794 (  272 443 ) resistor r=5.4201 //w=0.34 //l=0.17 //layer=li \
 //thickness=0.1 //x=27.92 //y=0 //x2=27.75 //y2=0
r795 (  271 445 ) resistor r=2.94794 //w=0.34 //l=0.085 //layer=li \
 //thickness=0.1 //x=28.845 //y=0 //x2=28.93 //y2=0
r796 (  271 272 ) resistor r=33.1653 //w=0.357 //l=0.925 //layer=li \
 //thickness=0.1 //x=28.845 //y=0 //x2=27.92 //y2=0
r797 (  266 436 ) resistor r=3.04762 //w=0.357 //l=0.085 //layer=li \
 //thickness=0.1 //x=27.215 //y=0 //x2=27.13 //y2=0
r798 (  266 268 ) resistor r=5.91597 //w=0.357 //l=0.165 //layer=li \
 //thickness=0.1 //x=27.215 //y=0 //x2=27.38 //y2=0
r799 (  265 443 ) resistor r=5.4201 //w=0.34 //l=0.17 //layer=li \
 //thickness=0.1 //x=27.58 //y=0 //x2=27.75 //y2=0
r800 (  265 268 ) resistor r=7.17087 //w=0.357 //l=0.2 //layer=li \
 //thickness=0.1 //x=27.58 //y=0 //x2=27.38 //y2=0
r801 (  261 499 ) resistor r=5.4201 //w=0.17 //l=0.085 //layer=li \
 //thickness=0.1 //x=27.13 //y=0.62 //x2=27.13 //y2=0.535
r802 (  261 499 ) resistor r=41.4118 //w=0.187 //l=0.605 //layer=li \
 //thickness=0.1 //x=27.13 //y=0.62 //x2=27.13 //y2=1.225
r803 (  260 499 ) resistor r=5.4201 //w=0.17 //l=0.085 //layer=li \
 //thickness=0.1 //x=27.13 //y=0.45 //x2=27.13 //y2=0.535
r804 (  259 436 ) resistor r=5.03728 //w=0.34 //l=0.17 //layer=li \
 //thickness=0.1 //x=27.13 //y=0.17 //x2=27.13 //y2=0
r805 (  259 260 ) resistor r=19.1658 //w=0.187 //l=0.28 //layer=li \
 //thickness=0.1 //x=27.13 //y=0.17 //x2=27.13 //y2=0.45
r806 (  258 499 ) resistor r=5.4201 //w=0.17 //l=0.085 //layer=li \
 //thickness=0.1 //x=26.73 //y=0.535 //x2=26.645 //y2=0.535
r807 (  257 499 ) resistor r=1.40859 //w=0.34 //l=0.085 //layer=li \
 //thickness=0.1 //x=27.045 //y=0.535 //x2=27.13 //y2=0.535
r808 (  257 258 ) resistor r=21.5615 //w=0.187 //l=0.315 //layer=li \
 //thickness=0.1 //x=27.045 //y=0.535 //x2=26.73 //y2=0.535
r809 (  256 499 ) resistor r=1.40859 //w=0.34 //l=0.085 //layer=li \
 //thickness=0.1 //x=26.645 //y=0.45 //x2=26.645 //y2=0.535
r810 (  255 435 ) resistor r=5.03728 //w=0.34 //l=0.17 //layer=li \
 //thickness=0.1 //x=26.645 //y=0.17 //x2=26.645 //y2=0
r811 (  255 256 ) resistor r=19.1658 //w=0.187 //l=0.28 //layer=li \
 //thickness=0.1 //x=26.645 //y=0.17 //x2=26.645 //y2=0.45
r812 (  254 499 ) resistor r=1.40859 //w=0.34 //l=0.085 //layer=li \
 //thickness=0.1 //x=26.245 //y=0.535 //x2=26.16 //y2=0.535
r813 (  253 499 ) resistor r=5.4201 //w=0.17 //l=0.085 //layer=li \
 //thickness=0.1 //x=26.56 //y=0.535 //x2=26.645 //y2=0.535
r814 (  253 254 ) resistor r=21.5615 //w=0.187 //l=0.315 //layer=li \
 //thickness=0.1 //x=26.56 //y=0.535 //x2=26.245 //y2=0.535
r815 (  249 499 ) resistor r=5.4201 //w=0.17 //l=0.085 //layer=li \
 //thickness=0.1 //x=26.16 //y=0.62 //x2=26.16 //y2=0.535
r816 (  249 499 ) resistor r=41.4118 //w=0.187 //l=0.605 //layer=li \
 //thickness=0.1 //x=26.16 //y=0.62 //x2=26.16 //y2=1.225
r817 (  248 499 ) resistor r=5.4201 //w=0.17 //l=0.085 //layer=li \
 //thickness=0.1 //x=26.16 //y=0.45 //x2=26.16 //y2=0.535
r818 (  247 432 ) resistor r=5.03728 //w=0.34 //l=0.17 //layer=li \
 //thickness=0.1 //x=26.16 //y=0.17 //x2=26.16 //y2=0
r819 (  247 248 ) resistor r=19.1658 //w=0.187 //l=0.28 //layer=li \
 //thickness=0.1 //x=26.16 //y=0.17 //x2=26.16 //y2=0.45
r820 (  246 431 ) resistor r=5.4201 //w=0.34 //l=0.17 //layer=li \
 //thickness=0.1 //x=25.7 //y=0 //x2=25.53 //y2=0
r821 (  245 432 ) resistor r=3.04762 //w=0.357 //l=0.085 //layer=li \
 //thickness=0.1 //x=26.075 //y=0 //x2=26.16 //y2=0
r822 (  245 246 ) resistor r=13.4454 //w=0.357 //l=0.375 //layer=li \
 //thickness=0.1 //x=26.075 //y=0 //x2=25.7 //y2=0
r823 (  240 242 ) resistor r=39.7983 //w=0.357 //l=1.11 //layer=li \
 //thickness=0.1 //x=23.68 //y=0 //x2=24.79 //y2=0
r824 (  238 430 ) resistor r=2.94794 //w=0.34 //l=0.085 //layer=li \
 //thickness=0.1 //x=23.465 //y=0 //x2=23.38 //y2=0
r825 (  238 240 ) resistor r=7.70868 //w=0.357 //l=0.215 //layer=li \
 //thickness=0.1 //x=23.465 //y=0 //x2=23.68 //y2=0
r826 (  237 431 ) resistor r=5.4201 //w=0.34 //l=0.17 //layer=li \
 //thickness=0.1 //x=25.36 //y=0 //x2=25.53 //y2=0
r827 (  237 242 ) resistor r=20.437 //w=0.357 //l=0.57 //layer=li \
 //thickness=0.1 //x=25.36 //y=0 //x2=24.79 //y2=0
r828 (  233 430 ) resistor r=4.11603 //w=0.68 //l=0.17 //layer=li \
 //thickness=0.1 //x=23.38 //y=0.17 //x2=23.38 //y2=0
r829 (  233 498 ) resistor r=53.7326 //w=0.187 //l=0.785 //layer=li \
 //thickness=0.1 //x=23.38 //y=0.17 //x2=23.38 //y2=0.955
r830 (  230 429 ) resistor r=5.4201 //w=0.34 //l=0.17 //layer=li \
 //thickness=0.1 //x=22.37 //y=0 //x2=22.2 //y2=0
r831 (  230 232 ) resistor r=7.17087 //w=0.357 //l=0.2 //layer=li \
 //thickness=0.1 //x=22.37 //y=0 //x2=22.57 //y2=0
r832 (  229 430 ) resistor r=2.94794 //w=0.34 //l=0.085 //layer=li \
 //thickness=0.1 //x=23.295 //y=0 //x2=23.38 //y2=0
r833 (  229 232 ) resistor r=25.9944 //w=0.357 //l=0.725 //layer=li \
 //thickness=0.1 //x=23.295 //y=0 //x2=22.57 //y2=0
r834 (  226 422 ) resistor r=3.04762 //w=0.357 //l=0.085 //layer=li \
 //thickness=0.1 //x=21.655 //y=0 //x2=21.57 //y2=0
r835 (  225 429 ) resistor r=5.4201 //w=0.34 //l=0.17 //layer=li \
 //thickness=0.1 //x=22.03 //y=0 //x2=22.2 //y2=0
r836 (  225 226 ) resistor r=13.4454 //w=0.357 //l=0.375 //layer=li \
 //thickness=0.1 //x=22.03 //y=0 //x2=21.655 //y2=0
r837 (  221 497 ) resistor r=5.4201 //w=0.17 //l=0.085 //layer=li \
 //thickness=0.1 //x=21.57 //y=0.62 //x2=21.57 //y2=0.535
r838 (  221 497 ) resistor r=41.4118 //w=0.187 //l=0.605 //layer=li \
 //thickness=0.1 //x=21.57 //y=0.62 //x2=21.57 //y2=1.225
r839 (  220 497 ) resistor r=5.4201 //w=0.17 //l=0.085 //layer=li \
 //thickness=0.1 //x=21.57 //y=0.45 //x2=21.57 //y2=0.535
r840 (  219 422 ) resistor r=5.03728 //w=0.34 //l=0.17 //layer=li \
 //thickness=0.1 //x=21.57 //y=0.17 //x2=21.57 //y2=0
r841 (  219 220 ) resistor r=19.1658 //w=0.187 //l=0.28 //layer=li \
 //thickness=0.1 //x=21.57 //y=0.17 //x2=21.57 //y2=0.45
r842 (  218 497 ) resistor r=5.4201 //w=0.17 //l=0.085 //layer=li \
 //thickness=0.1 //x=21.17 //y=0.535 //x2=21.085 //y2=0.535
r843 (  217 497 ) resistor r=1.40859 //w=0.34 //l=0.085 //layer=li \
 //thickness=0.1 //x=21.485 //y=0.535 //x2=21.57 //y2=0.535
r844 (  217 218 ) resistor r=21.5615 //w=0.187 //l=0.315 //layer=li \
 //thickness=0.1 //x=21.485 //y=0.535 //x2=21.17 //y2=0.535
r845 (  216 497 ) resistor r=1.40859 //w=0.34 //l=0.085 //layer=li \
 //thickness=0.1 //x=21.085 //y=0.45 //x2=21.085 //y2=0.535
r846 (  215 419 ) resistor r=5.03728 //w=0.34 //l=0.17 //layer=li \
 //thickness=0.1 //x=21.085 //y=0.17 //x2=21.085 //y2=0
r847 (  215 216 ) resistor r=19.1658 //w=0.187 //l=0.28 //layer=li \
 //thickness=0.1 //x=21.085 //y=0.17 //x2=21.085 //y2=0.45
r848 (  214 497 ) resistor r=1.40859 //w=0.34 //l=0.085 //layer=li \
 //thickness=0.1 //x=20.685 //y=0.535 //x2=20.6 //y2=0.535
r849 (  213 497 ) resistor r=5.4201 //w=0.17 //l=0.085 //layer=li \
 //thickness=0.1 //x=21 //y=0.535 //x2=21.085 //y2=0.535
r850 (  213 214 ) resistor r=21.5615 //w=0.187 //l=0.315 //layer=li \
 //thickness=0.1 //x=21 //y=0.535 //x2=20.685 //y2=0.535
r851 (  209 497 ) resistor r=5.4201 //w=0.17 //l=0.085 //layer=li \
 //thickness=0.1 //x=20.6 //y=0.62 //x2=20.6 //y2=0.535
r852 (  209 497 ) resistor r=41.4118 //w=0.187 //l=0.605 //layer=li \
 //thickness=0.1 //x=20.6 //y=0.62 //x2=20.6 //y2=1.225
r853 (  208 497 ) resistor r=5.4201 //w=0.17 //l=0.085 //layer=li \
 //thickness=0.1 //x=20.6 //y=0.45 //x2=20.6 //y2=0.535
r854 (  207 418 ) resistor r=5.03728 //w=0.34 //l=0.17 //layer=li \
 //thickness=0.1 //x=20.6 //y=0.17 //x2=20.6 //y2=0
r855 (  207 208 ) resistor r=19.1658 //w=0.187 //l=0.28 //layer=li \
 //thickness=0.1 //x=20.6 //y=0.17 //x2=20.6 //y2=0.45
r856 (  206 417 ) resistor r=5.4201 //w=0.34 //l=0.17 //layer=li \