// File: FA.spi.FA.pxi
// Created: Tue Oct 15 15:48:52 2024
// 
simulator lang=spectre
x_PM_FA\%GND ( GND N_GND_c_16_p N_GND_c_71_p N_GND_c_79_p N_GND_c_435_p \
 N_GND_c_95_p N_GND_c_82_p N_GND_c_22_p N_GND_c_23_p N_GND_c_24_p N_GND_c_25_p \
 N_GND_c_453_p N_GND_c_26_p N_GND_c_27_p N_GND_c_28_p N_GND_c_29_p \
 N_GND_c_30_p N_GND_c_188_p N_GND_c_477_p N_GND_c_31_p N_GND_c_32_p \
 N_GND_c_33_p N_GND_c_34_p N_GND_c_35_p N_GND_c_36_p N_GND_c_495_p \
 N_GND_c_37_p N_GND_c_38_p N_GND_c_520_p N_GND_c_39_p N_GND_c_40_p \
 N_GND_c_41_p N_GND_c_42_p N_GND_c_517_p N_GND_c_43_p N_GND_c_297_p \
 N_GND_c_543_p N_GND_c_44_p N_GND_c_45_p N_GND_c_46_p N_GND_c_331_p \
 N_GND_c_540_p N_GND_c_311_p N_GND_c_319_p N_GND_c_333_p N_GND_c_334_p \
 N_GND_c_335_p N_GND_c_352_p N_GND_c_367_p N_GND_c_371_p N_GND_c_379_p \
 N_GND_c_380_p N_GND_c_381_p N_GND_c_405_p N_GND_c_1_p N_GND_c_2_p N_GND_c_3_p \
 N_GND_c_4_p N_GND_c_5_p N_GND_c_6_p N_GND_c_7_p N_GND_c_8_p N_GND_c_9_p \
 N_GND_c_10_p N_GND_c_11_p N_GND_c_12_p N_GND_c_13_p N_GND_c_14_p N_GND_c_15_p \
 N_GND_M0_noxref_s N_GND_M1_noxref_d N_GND_M3_noxref_d N_GND_M5_noxref_s \
 N_GND_M6_noxref_s N_GND_M7_noxref_d N_GND_M9_noxref_d N_GND_M11_noxref_s \
 N_GND_M12_noxref_d N_GND_M14_noxref_s N_GND_M15_noxref_d N_GND_M17_noxref_s \
 N_GND_M18_noxref_s N_GND_M20_noxref_s )  PM_FA\%GND
x_PM_FA\%VDD ( VDD N_VDD_c_573_p N_VDD_c_574_p N_VDD_c_575_p N_VDD_c_576_p \
 N_VDD_c_599_p N_VDD_c_629_p N_VDD_c_619_p N_VDD_c_651_p N_VDD_c_639_p \
 N_VDD_c_659_p N_VDD_c_660_p N_VDD_c_661_p N_VDD_c_662_p N_VDD_c_663_p \
 N_VDD_c_664_p N_VDD_c_665_p N_VDD_c_666_p N_VDD_c_667_p N_VDD_c_668_p \
 N_VDD_c_669_p N_VDD_c_670_p N_VDD_c_671_p N_VDD_c_759_p N_VDD_c_672_p \
 N_VDD_c_673_p N_VDD_c_674_p N_VDD_c_675_p N_VDD_c_676_p N_VDD_c_677_p \
 N_VDD_c_601_p N_VDD_c_905_p N_VDD_c_935_p N_VDD_c_938_p N_VDD_c_980_p \
 N_VDD_c_558_n N_VDD_c_559_n N_VDD_c_560_n N_VDD_c_561_n N_VDD_c_562_n \
 N_VDD_c_563_n N_VDD_c_564_n N_VDD_c_565_n N_VDD_c_566_n N_VDD_c_567_n \
 N_VDD_c_568_n N_VDD_c_569_n N_VDD_c_570_n N_VDD_c_571_n N_VDD_c_572_n \
 N_VDD_M21_noxref_s N_VDD_M22_noxref_d N_VDD_M23_noxref_d N_VDD_M27_noxref_d \
 N_VDD_M31_noxref_s N_VDD_M32_noxref_d N_VDD_M33_noxref_s N_VDD_M34_noxref_d \
 N_VDD_M35_noxref_d N_VDD_M39_noxref_d N_VDD_M43_noxref_s N_VDD_M44_noxref_d \
 N_VDD_M45_noxref_s N_VDD_M46_noxref_d N_VDD_M48_noxref_d N_VDD_M49_noxref_s \
 N_VDD_M50_noxref_d N_VDD_M51_noxref_s N_VDD_M52_noxref_d N_VDD_M54_noxref_d \
 N_VDD_M55_noxref_s N_VDD_M56_noxref_d N_VDD_M57_noxref_d N_VDD_M61_noxref_s \
 N_VDD_M62_noxref_d )  PM_FA\%VDD
x_PM_FA\%A ( N_A_c_1088_n N_A_c_1090_n N_A_c_1092_n N_A_c_1094_n N_A_c_1132_n \
 N_A_c_1134_n A A A A A A A A A A A A A A A A A A N_A_c_1142_n N_A_c_1260_p \
 N_A_M0_noxref_g N_A_M1_noxref_g N_A_M16_noxref_g N_A_M21_noxref_g \
 N_A_M22_noxref_g N_A_M23_noxref_g N_A_M24_noxref_g N_A_M53_noxref_g \
 N_A_M54_noxref_g N_A_c_1147_n N_A_c_1229_p N_A_c_1230_p N_A_c_1149_n \
 N_A_c_1199_n N_A_c_1200_n N_A_c_1150_n N_A_c_1212_p N_A_c_1151_n N_A_c_1153_n \
 N_A_c_1154_n N_A_c_1156_n N_A_c_1281_p N_A_c_1157_n N_A_c_1158_n N_A_c_1159_n \
 N_A_c_1160_n N_A_c_1162_n N_A_c_1295_p N_A_c_1297_p N_A_c_1298_p N_A_c_1380_p \
 N_A_c_1389_p N_A_c_1373_p N_A_c_1305_p N_A_c_1308_p N_A_c_1163_n N_A_c_1202_n \
 N_A_c_1274_p N_A_c_1382_p N_A_c_1261_p )  PM_FA\%A
x_PM_FA\%noxref_4 ( N_noxref_4_c_1465_n N_noxref_4_c_1471_n \
 N_noxref_4_c_1474_n N_noxref_4_c_1514_n N_noxref_4_c_1488_n \
 N_noxref_4_c_1491_n N_noxref_4_c_1477_n N_noxref_4_c_1480_n \
 N_noxref_4_M4_noxref_g N_noxref_4_M29_noxref_g N_noxref_4_M30_noxref_g \
 N_noxref_4_c_1552_p N_noxref_4_c_1554_p N_noxref_4_c_1555_p \
 N_noxref_4_c_1526_n N_noxref_4_c_1608_p N_noxref_4_c_1527_n \
 N_noxref_4_c_1561_p N_noxref_4_c_1564_p N_noxref_4_c_1569_p \
 N_noxref_4_M0_noxref_d N_noxref_4_M21_noxref_d )  PM_FA\%noxref_4
x_PM_FA\%noxref_5 ( N_noxref_5_c_1646_n N_noxref_5_c_1651_n \
 N_noxref_5_c_1670_n N_noxref_5_c_1689_n N_noxref_5_c_1652_n \
 N_noxref_5_c_1626_n N_noxref_5_c_1627_n N_noxref_5_c_1628_n \
 N_noxref_5_c_1629_n N_noxref_5_c_1656_n N_noxref_5_c_1657_n \
 N_noxref_5_M3_noxref_g N_noxref_5_M25_noxref_g N_noxref_5_M26_noxref_g \
 N_noxref_5_c_1632_n N_noxref_5_c_1634_n N_noxref_5_c_1635_n \
 N_noxref_5_c_1636_n N_noxref_5_c_1637_n N_noxref_5_c_1638_n \
 N_noxref_5_c_1639_n N_noxref_5_c_1641_n N_noxref_5_c_1681_n \
 N_noxref_5_M5_noxref_d N_noxref_5_M31_noxref_d )  PM_FA\%noxref_5
x_PM_FA\%B ( N_B_c_1801_n N_B_c_1910_n N_B_c_1830_n N_B_c_1837_n N_B_c_1839_n \
 N_B_c_1876_n N_B_c_1880_n B B B B B B B B B B B B B B B N_B_c_1803_n \
 N_B_c_1805_n N_B_c_1810_n N_B_M2_noxref_g N_B_M5_noxref_g N_B_M15_noxref_g \
 N_B_M27_noxref_g N_B_M28_noxref_g N_B_M31_noxref_g N_B_M32_noxref_g \
 N_B_M51_noxref_g N_B_M52_noxref_g N_B_c_1931_n N_B_c_1934_n N_B_c_1936_n \
 N_B_c_1939_n N_B_c_2077_p N_B_c_1943_n N_B_c_1944_n N_B_c_1945_n N_B_c_1811_n \
 N_B_c_1813_n N_B_c_2011_n N_B_c_1904_n N_B_c_1814_n N_B_c_2015_n N_B_c_1905_n \
 N_B_c_1815_n N_B_c_2019_n N_B_c_2020_n N_B_c_1817_n N_B_c_1818_n N_B_c_1820_n \
 N_B_c_1950_n N_B_c_1821_n N_B_c_1822_n N_B_c_1823_n N_B_c_1824_n N_B_c_1826_n \
 N_B_c_1907_n N_B_c_1827_n N_B_c_1908_n )  PM_FA\%B
x_PM_FA\%noxref_7 ( N_noxref_7_c_2293_n N_noxref_7_c_2272_n \
 N_noxref_7_c_2182_n N_noxref_7_c_2297_n N_noxref_7_c_2183_n \
 N_noxref_7_c_2187_n N_noxref_7_c_2188_n N_noxref_7_c_2230_n \
 N_noxref_7_c_2231_n N_noxref_7_c_2233_n N_noxref_7_c_2189_n \
 N_noxref_7_c_2277_n N_noxref_7_c_2190_n N_noxref_7_c_2236_n \
 N_noxref_7_c_2238_n N_noxref_7_c_2191_n N_noxref_7_c_2281_n \
 N_noxref_7_c_2239_n N_noxref_7_c_2193_n N_noxref_7_c_2198_n \
 N_noxref_7_c_2392_n N_noxref_7_c_2199_n N_noxref_7_M6_noxref_g \
 N_noxref_7_M7_noxref_g N_noxref_7_M13_noxref_g N_noxref_7_M33_noxref_g \
 N_noxref_7_M34_noxref_g N_noxref_7_M35_noxref_g N_noxref_7_M36_noxref_g \
 N_noxref_7_M47_noxref_g N_noxref_7_M48_noxref_g N_noxref_7_c_2201_n \
 N_noxref_7_c_2441_p N_noxref_7_c_2442_p N_noxref_7_c_2203_n \
 N_noxref_7_c_2263_n N_noxref_7_c_2264_n N_noxref_7_c_2204_n \
 N_noxref_7_c_2287_n N_noxref_7_c_2205_n N_noxref_7_c_2207_n \
 N_noxref_7_c_2208_n N_noxref_7_c_2210_n N_noxref_7_c_2496_p \
 N_noxref_7_c_2211_n N_noxref_7_c_2212_n N_noxref_7_c_2213_n \
 N_noxref_7_c_2214_n N_noxref_7_c_2216_n N_noxref_7_c_2506_p \
 N_noxref_7_c_2508_p N_noxref_7_c_2509_p N_noxref_7_c_2402_n \
 N_noxref_7_c_2541_p N_noxref_7_c_2289_n N_noxref_7_c_2515_p \
 N_noxref_7_c_2518_p N_noxref_7_c_2217_n N_noxref_7_c_2266_n \
 N_noxref_7_c_2291_n N_noxref_7_c_2292_n N_noxref_7_c_2405_n \
 N_noxref_7_M2_noxref_d N_noxref_7_M4_noxref_d N_noxref_7_M25_noxref_d \
 N_noxref_7_M29_noxref_d )  PM_FA\%noxref_7
x_PM_FA\%noxref_8 ( N_noxref_8_c_2602_n N_noxref_8_c_2604_n \
 N_noxref_8_c_2605_n N_noxref_8_c_2658_n N_noxref_8_c_2617_n \
 N_noxref_8_c_2619_n N_noxref_8_c_2607_n N_noxref_8_c_2610_n \
 N_noxref_8_M10_noxref_g N_noxref_8_M41_noxref_g N_noxref_8_M42_noxref_g \
 N_noxref_8_c_2708_p N_noxref_8_c_2709_p N_noxref_8_c_2710_p \
 N_noxref_8_c_2636_n N_noxref_8_c_2712_p N_noxref_8_c_2637_n \
 N_noxref_8_c_2714_p N_noxref_8_c_2705_p N_noxref_8_c_2647_n \
 N_noxref_8_M6_noxref_d N_noxref_8_M33_noxref_d )  PM_FA\%noxref_8
x_PM_FA\%SUM ( N_SUM_c_2794_n N_SUM_c_2795_n SUM SUM SUM SUM SUM \
 N_SUM_c_2779_n N_SUM_c_2781_n N_SUM_c_2765_n N_SUM_c_2792_n N_SUM_c_2782_n \
 N_SUM_c_2784_n N_SUM_c_2766_n N_SUM_c_2793_n N_SUM_M8_noxref_d \
 N_SUM_M10_noxref_d N_SUM_M37_noxref_d N_SUM_M41_noxref_d )  PM_FA\%SUM
x_PM_FA\%noxref_10 ( N_noxref_10_c_2933_n N_noxref_10_c_2955_n \
 N_noxref_10_c_2964_n N_noxref_10_c_2984_n N_noxref_10_c_2935_n \
 N_noxref_10_c_2913_n N_noxref_10_c_2914_n N_noxref_10_c_2915_n \
 N_noxref_10_c_2916_n N_noxref_10_c_2939_n N_noxref_10_c_2940_n \
 N_noxref_10_M9_noxref_g N_noxref_10_M37_noxref_g N_noxref_10_M38_noxref_g \
 N_noxref_10_c_2919_n N_noxref_10_c_2921_n N_noxref_10_c_2922_n \
 N_noxref_10_c_2923_n N_noxref_10_c_2924_n N_noxref_10_c_2925_n \
 N_noxref_10_c_2926_n N_noxref_10_c_2928_n N_noxref_10_c_2960_n \
 N_noxref_10_M11_noxref_d N_noxref_10_M43_noxref_d )  PM_FA\%noxref_10
x_PM_FA\%CIN ( N_CIN_c_3085_n N_CIN_c_3175_n N_CIN_c_3115_n N_CIN_c_3116_n \
 N_CIN_c_3087_n N_CIN_c_3118_n CIN CIN CIN CIN CIN CIN CIN CIN CIN CIN CIN CIN \
 CIN CIN N_CIN_c_3088_n N_CIN_c_3090_n N_CIN_c_3095_n N_CIN_M8_noxref_g \
 N_CIN_M11_noxref_g N_CIN_M12_noxref_g N_CIN_M39_noxref_g N_CIN_M40_noxref_g \
 N_CIN_M43_noxref_g N_CIN_M44_noxref_g N_CIN_M45_noxref_g N_CIN_M46_noxref_g \
 N_CIN_c_3193_n N_CIN_c_3196_n N_CIN_c_3198_n N_CIN_c_3150_n N_CIN_c_3257_n \
 N_CIN_c_3151_n N_CIN_c_3204_n N_CIN_c_3205_n N_CIN_c_3096_n N_CIN_c_3098_n \
 N_CIN_c_3294_n N_CIN_c_3140_n N_CIN_c_3099_n N_CIN_c_3298_n N_CIN_c_3141_n \
 N_CIN_c_3100_n N_CIN_c_3302_n N_CIN_c_3303_n N_CIN_c_3102_n N_CIN_c_3103_n \
 N_CIN_c_3105_n N_CIN_c_3208_n N_CIN_c_3106_n N_CIN_c_3107_n N_CIN_c_3108_n \
 N_CIN_c_3109_n N_CIN_c_3111_n N_CIN_c_3143_n N_CIN_c_3112_n N_CIN_c_3144_n )  \
 PM_FA\%CIN
x_PM_FA\%noxref_12 ( N_noxref_12_c_3336_n N_noxref_12_c_3394_n \
 N_noxref_12_c_3359_n N_noxref_12_c_3363_n N_noxref_12_c_3365_n \
 N_noxref_12_c_3337_n N_noxref_12_c_3395_n N_noxref_12_c_3368_n \
 N_noxref_12_c_3339_n N_noxref_12_c_3426_n N_noxref_12_M14_noxref_g \
 N_noxref_12_M49_noxref_g N_noxref_12_M50_noxref_g N_noxref_12_c_3344_n \
 N_noxref_12_c_3457_p N_noxref_12_c_3458_p N_noxref_12_c_3346_n \
 N_noxref_12_c_3379_n N_noxref_12_c_3380_n N_noxref_12_c_3347_n \
 N_noxref_12_c_3399_n N_noxref_12_c_3348_n N_noxref_12_c_3350_n \
 N_noxref_12_c_3351_n N_noxref_12_M13_noxref_d N_noxref_12_M45_noxref_d \
 N_noxref_12_M47_noxref_d )  PM_FA\%noxref_12
x_PM_FA\%noxref_13 ( N_noxref_13_c_3497_n N_noxref_13_c_3500_n \
 N_noxref_13_c_3502_n N_noxref_13_c_3506_n N_noxref_13_c_3508_n \
 N_noxref_13_c_3475_n N_noxref_13_c_3579_p N_noxref_13_c_3477_n \
 N_noxref_13_c_3478_n N_noxref_13_c_3554_n N_noxref_13_M17_noxref_g \
 N_noxref_13_M55_noxref_g N_noxref_13_M56_noxref_g N_noxref_13_c_3483_n \
 N_noxref_13_c_3598_p N_noxref_13_c_3599_p N_noxref_13_c_3485_n \
 N_noxref_13_c_3522_n N_noxref_13_c_3523_n N_noxref_13_c_3486_n \
 N_noxref_13_c_3586_p N_noxref_13_c_3487_n N_noxref_13_c_3489_n \
 N_noxref_13_c_3490_n N_noxref_13_M16_noxref_d N_noxref_13_M51_noxref_d \
 N_noxref_13_M53_noxref_d )  PM_FA\%noxref_13
x_PM_FA\%noxref_14 ( N_noxref_14_c_3617_n N_noxref_14_c_3675_n \
 N_noxref_14_c_3629_n N_noxref_14_c_3693_n N_noxref_14_c_3650_n \
 N_noxref_14_c_3652_n N_noxref_14_c_3631_n N_noxref_14_c_3632_n \
 N_noxref_14_c_3656_n N_noxref_14_M18_noxref_g N_noxref_14_M57_noxref_g \
 N_noxref_14_M58_noxref_g N_noxref_14_c_3635_n N_noxref_14_c_3744_p \
 N_noxref_14_c_3745_p N_noxref_14_c_3637_n N_noxref_14_c_3639_n \
 N_noxref_14_c_3768_p N_noxref_14_c_3734_p N_noxref_14_c_3640_n \
 N_noxref_14_c_3642_n N_noxref_14_c_3664_n N_noxref_14_M14_noxref_d \
 N_noxref_14_M49_noxref_d )  PM_FA\%noxref_14
x_PM_FA\%noxref_15 ( N_noxref_15_c_3782_n N_noxref_15_c_3803_n \
 N_noxref_15_c_3783_n N_noxref_15_c_3824_n N_noxref_15_c_3805_n \
 N_noxref_15_c_3808_n N_noxref_15_c_3786_n N_noxref_15_c_3856_n \
 N_noxref_15_c_3787_n N_noxref_15_M19_noxref_g N_noxref_15_M59_noxref_g \
 N_noxref_15_M60_noxref_g N_noxref_15_c_3789_n N_noxref_15_c_3867_n \
 N_noxref_15_c_3870_n N_noxref_15_c_3891_p N_noxref_15_c_3791_n \
 N_noxref_15_c_3792_n N_noxref_15_c_3793_n N_noxref_15_c_3874_n \
 N_noxref_15_c_3875_n N_noxref_15_c_3877_n N_noxref_15_c_3878_n \
 N_noxref_15_M17_noxref_d N_noxref_15_M55_noxref_d )  PM_FA\%noxref_15
x_PM_FA\%noxref_16 ( N_noxref_16_c_3919_n N_noxref_16_c_3925_n \
 N_noxref_16_c_3927_n N_noxref_16_c_3986_n N_noxref_16_c_3964_n \
 N_noxref_16_c_3966_n N_noxref_16_c_3931_n N_noxref_16_c_3936_n \
 N_noxref_16_c_3937_n N_noxref_16_M20_noxref_g N_noxref_16_M61_noxref_g \
 N_noxref_16_M62_noxref_g N_noxref_16_c_3942_n N_noxref_16_c_4047_p \
 N_noxref_16_c_4048_p N_noxref_16_c_3944_n N_noxref_16_c_3978_n \
 N_noxref_16_c_3979_n N_noxref_16_c_3945_n N_noxref_16_c_4039_p \
 N_noxref_16_c_3946_n N_noxref_16_c_3948_n N_noxref_16_c_3949_n \
 N_noxref_16_M18_noxref_d N_noxref_16_M19_noxref_d N_noxref_16_M59_noxref_d )  \
 PM_FA\%noxref_16
x_PM_FA\%noxref_17 ( N_noxref_17_c_4059_n N_noxref_17_c_4064_n \
 N_noxref_17_c_4066_n N_noxref_17_c_4067_n N_noxref_17_M23_noxref_s \
 N_noxref_17_M24_noxref_d N_noxref_17_M26_noxref_d )  PM_FA\%noxref_17
x_PM_FA\%noxref_18 ( N_noxref_18_c_4098_n N_noxref_18_c_4099_n \
 N_noxref_18_c_4103_n N_noxref_18_c_4106_n N_noxref_18_c_4107_n \
 N_noxref_18_c_4110_n N_noxref_18_M1_noxref_s )  PM_FA\%noxref_18
x_PM_FA\%noxref_19 ( N_noxref_19_c_4149_n N_noxref_19_c_4154_n \
 N_noxref_19_c_4155_n N_noxref_19_c_4156_n N_noxref_19_M27_noxref_s \
 N_noxref_19_M28_noxref_d N_noxref_19_M30_noxref_d )  PM_FA\%noxref_19
x_PM_FA\%noxref_20 ( N_noxref_20_c_4211_n N_noxref_20_c_4190_n \
 N_noxref_20_c_4194_n N_noxref_20_c_4197_n N_noxref_20_c_4198_n \
 N_noxref_20_c_4201_n N_noxref_20_M3_noxref_s )  PM_FA\%noxref_20
x_PM_FA\%noxref_21 ( N_noxref_21_c_4240_n N_noxref_21_c_4245_n \
 N_noxref_21_c_4247_n N_noxref_21_c_4248_n N_noxref_21_M35_noxref_s \
 N_noxref_21_M36_noxref_d N_noxref_21_M38_noxref_d )  PM_FA\%noxref_21
x_PM_FA\%noxref_22 ( N_noxref_22_c_4277_n N_noxref_22_c_4278_n \
 N_noxref_22_c_4282_n N_noxref_22_c_4285_n N_noxref_22_c_4286_n \
 N_noxref_22_c_4289_n N_noxref_22_M7_noxref_s )  PM_FA\%noxref_22
x_PM_FA\%noxref_23 ( N_noxref_23_c_4326_n N_noxref_23_c_4331_n \
 N_noxref_23_c_4332_n N_noxref_23_c_4333_n N_noxref_23_M39_noxref_s \
 N_noxref_23_M40_noxref_d N_noxref_23_M42_noxref_d )  PM_FA\%noxref_23
x_PM_FA\%noxref_24 ( N_noxref_24_c_4386_n N_noxref_24_c_4365_n \
 N_noxref_24_c_4369_n N_noxref_24_c_4372_n N_noxref_24_c_4373_n \
 N_noxref_24_c_4376_n N_noxref_24_M9_noxref_s )  PM_FA\%noxref_24
x_PM_FA\%noxref_25 ( N_noxref_25_c_4415_n N_noxref_25_c_4416_n \
 N_noxref_25_c_4420_n N_noxref_25_c_4423_n N_noxref_25_c_4424_n \
 N_noxref_25_c_4427_n N_noxref_25_M12_noxref_s )  PM_FA\%noxref_25
x_PM_FA\%noxref_26 ( N_noxref_26_c_4468_n N_noxref_26_c_4469_n \
 N_noxref_26_c_4473_n N_noxref_26_c_4476_n N_noxref_26_c_4477_n \
 N_noxref_26_c_4480_n N_noxref_26_M15_noxref_s )  PM_FA\%noxref_26
x_PM_FA\%noxref_27 ( N_noxref_27_c_4525_n N_noxref_27_c_4530_n \
 N_noxref_27_c_4532_n N_noxref_27_c_4533_n N_noxref_27_M57_noxref_s \
 N_noxref_27_M58_noxref_d N_noxref_27_M60_noxref_d )  PM_FA\%noxref_27
x_PM_FA\%COUT ( COUT COUT COUT COUT COUT COUT COUT N_COUT_c_4568_n \
 N_COUT_c_4592_n N_COUT_c_4578_n N_COUT_c_4581_n N_COUT_M20_noxref_d \
 N_COUT_M61_noxref_d )  PM_FA\%COUT
cc_1 ( N_GND_c_1_p N_VDD_c_558_n ) capacitor c=0.00989031f //x=38.48 //y=0 \
 //x2=38.48 //y2=7.4
cc_2 ( N_GND_c_2_p N_VDD_c_559_n ) capacitor c=0.00989031f //x=0.63 //y=0 \
 //x2=0.74 //y2=7.4
cc_3 ( N_GND_c_3_p N_VDD_c_560_n ) capacitor c=0.00582097f //x=2.22 //y=0 \
 //x2=2.22 //y2=7.4
cc_4 ( N_GND_c_4_p N_VDD_c_561_n ) capacitor c=0.0057235f //x=5.55 //y=0 \
 //x2=5.55 //y2=7.4
cc_5 ( N_GND_c_5_p N_VDD_c_562_n ) capacitor c=0.00474727f //x=8.88 //y=0 \
 //x2=8.88 //y2=7.4
cc_6 ( N_GND_c_6_p N_VDD_c_563_n ) capacitor c=0.0085201f //x=11.1 //y=0 \
 //x2=11.1 //y2=7.4
cc_7 ( N_GND_c_7_p N_VDD_c_564_n ) capacitor c=0.00582097f //x=13.32 //y=0 \
 //x2=13.32 //y2=7.4
cc_8 ( N_GND_c_8_p N_VDD_c_565_n ) capacitor c=0.0057235f //x=16.65 //y=0 \
 //x2=16.65 //y2=7.4
cc_9 ( N_GND_c_9_p N_VDD_c_566_n ) capacitor c=0.00478842f //x=19.98 //y=0 \
 //x2=19.98 //y2=7.4
cc_10 ( N_GND_c_10_p N_VDD_c_567_n ) capacitor c=0.00969007f //x=22.2 //y=0 \
 //x2=22.2 //y2=7.4
cc_11 ( N_GND_c_11_p N_VDD_c_568_n ) capacitor c=0.00855708f //x=25.53 //y=0 \
 //x2=25.53 //y2=7.4
cc_12 ( N_GND_c_12_p N_VDD_c_569_n ) capacitor c=0.00850989f //x=27.75 //y=0 \
 //x2=27.75 //y2=7.4
cc_13 ( N_GND_c_13_p N_VDD_c_570_n ) capacitor c=0.00829849f //x=31.08 //y=0 \
 //x2=31.08 //y2=7.4
cc_14 ( N_GND_c_14_p N_VDD_c_571_n ) capacitor c=0.00829849f //x=33.3 //y=0 \
 //x2=33.3 //y2=7.4
cc_15 ( N_GND_c_15_p N_VDD_c_572_n ) capacitor c=0.00855708f //x=36.63 //y=0 \
 //x2=36.63 //y2=7.4
cc_16 ( N_GND_c_16_p N_A_c_1088_n ) capacitor c=0.00375365f //x=38.48 //y=0 \
 //x2=3.215 //y2=4.07
cc_17 ( N_GND_c_3_p N_A_c_1088_n ) capacitor c=0.00249386f //x=2.22 //y=0 \
 //x2=3.215 //y2=4.07
cc_18 ( N_GND_c_16_p N_A_c_1090_n ) capacitor c=0.00155455f //x=38.48 //y=0 \
 //x2=0.855 //y2=4.07
cc_19 ( N_GND_M0_noxref_s N_A_c_1090_n ) capacitor c=5.91312e-19 //x=0.495 \
 //y=0.37 //x2=0.855 //y2=4.07
cc_20 ( N_GND_c_16_p N_A_c_1092_n ) capacitor c=2.19685e-19 //x=38.48 //y=0 \
 //x2=3.33 //y2=2.105
cc_21 ( N_GND_c_3_p N_A_c_1092_n ) capacitor c=0.00219549f //x=2.22 //y=0 \
 //x2=3.33 //y2=2.105
cc_22 ( N_GND_c_22_p N_A_c_1094_n ) capacitor c=0.00586301f //x=5.38 //y=0 \
 //x2=29.515 //y2=1.85
cc_23 ( N_GND_c_23_p N_A_c_1094_n ) capacitor c=0.00449081f //x=6.645 //y=0 \
 //x2=29.515 //y2=1.85
cc_24 ( N_GND_c_24_p N_A_c_1094_n ) capacitor c=0.00586301f //x=8.71 //y=0 \
 //x2=29.515 //y2=1.85
cc_25 ( N_GND_c_25_p N_A_c_1094_n ) capacitor c=0.00249862f //x=9.415 //y=0 \
 //x2=29.515 //y2=1.85
cc_26 ( N_GND_c_26_p N_A_c_1094_n ) capacitor c=0.00231363f //x=9.9 //y=0.535 \
 //x2=29.515 //y2=1.85
cc_27 ( N_GND_c_27_p N_A_c_1094_n ) capacitor c=0.00421577f //x=10.385 \
 //y=0.535 //x2=29.515 //y2=1.85
cc_28 ( N_GND_c_28_p N_A_c_1094_n ) capacitor c=0.00259291f //x=10.93 //y=0 \
 //x2=29.515 //y2=1.85
cc_29 ( N_GND_c_29_p N_A_c_1094_n ) capacitor c=0.00259291f //x=11.645 //y=0 \
 //x2=29.515 //y2=1.85
cc_30 ( N_GND_c_30_p N_A_c_1094_n ) capacitor c=0.00486004f //x=12.13 \
 //y=0.535 //x2=29.515 //y2=1.85
cc_31 ( N_GND_c_31_p N_A_c_1094_n ) capacitor c=0.00249862f //x=13.15 //y=0 \
 //x2=29.515 //y2=1.85
cc_32 ( N_GND_c_32_p N_A_c_1094_n ) capacitor c=0.00449081f //x=14.415 //y=0 \
 //x2=29.515 //y2=1.85
cc_33 ( N_GND_c_33_p N_A_c_1094_n ) capacitor c=0.00586301f //x=16.48 //y=0 \
 //x2=29.515 //y2=1.85
cc_34 ( N_GND_c_34_p N_A_c_1094_n ) capacitor c=0.00449081f //x=17.745 //y=0 \
 //x2=29.515 //y2=1.85
cc_35 ( N_GND_c_35_p N_A_c_1094_n ) capacitor c=0.00586301f //x=19.81 //y=0 \
 //x2=29.515 //y2=1.85
cc_36 ( N_GND_c_36_p N_A_c_1094_n ) capacitor c=0.00249862f //x=20.515 //y=0 \
 //x2=29.515 //y2=1.85
cc_37 ( N_GND_c_37_p N_A_c_1094_n ) capacitor c=0.00231363f //x=21 //y=0.535 \
 //x2=29.515 //y2=1.85
cc_38 ( N_GND_c_38_p N_A_c_1094_n ) capacitor c=0.00421577f //x=21.485 \
 //y=0.535 //x2=29.515 //y2=1.85
cc_39 ( N_GND_c_39_p N_A_c_1094_n ) capacitor c=0.00259291f //x=22.03 //y=0 \
 //x2=29.515 //y2=1.85
cc_40 ( N_GND_c_40_p N_A_c_1094_n ) capacitor c=0.00448875f //x=23.295 //y=0 \
 //x2=29.515 //y2=1.85
cc_41 ( N_GND_c_41_p N_A_c_1094_n ) capacitor c=0.00576163f //x=25.36 //y=0 \
 //x2=29.515 //y2=1.85
cc_42 ( N_GND_c_42_p N_A_c_1094_n ) capacitor c=0.00259291f //x=26.075 //y=0 \
 //x2=29.515 //y2=1.85
cc_43 ( N_GND_c_43_p N_A_c_1094_n ) capacitor c=0.00465172f //x=26.56 \
 //y=0.535 //x2=29.515 //y2=1.85
cc_44 ( N_GND_c_44_p N_A_c_1094_n ) capacitor c=0.00249862f //x=27.58 //y=0 \
 //x2=29.515 //y2=1.85
cc_45 ( N_GND_c_45_p N_A_c_1094_n ) capacitor c=0.00448875f //x=28.845 //y=0 \
 //x2=29.515 //y2=1.85
cc_46 ( N_GND_c_46_p N_A_c_1094_n ) capacitor c=0.00117121f //x=30.91 //y=0 \
 //x2=29.515 //y2=1.85
cc_47 ( N_GND_c_4_p N_A_c_1094_n ) capacitor c=0.0427295f //x=5.55 //y=0 \
 //x2=29.515 //y2=1.85
cc_48 ( N_GND_c_5_p N_A_c_1094_n ) capacitor c=0.0428613f //x=8.88 //y=0 \
 //x2=29.515 //y2=1.85
cc_49 ( N_GND_c_6_p N_A_c_1094_n ) capacitor c=0.0459641f //x=11.1 //y=0 \
 //x2=29.515 //y2=1.85
cc_50 ( N_GND_c_7_p N_A_c_1094_n ) capacitor c=0.0392964f //x=13.32 //y=0 \
 //x2=29.515 //y2=1.85
cc_51 ( N_GND_c_8_p N_A_c_1094_n ) capacitor c=0.0380496f //x=16.65 //y=0 \
 //x2=29.515 //y2=1.85
cc_52 ( N_GND_c_9_p N_A_c_1094_n ) capacitor c=0.0370781f //x=19.98 //y=0 \
 //x2=29.515 //y2=1.85
cc_53 ( N_GND_c_10_p N_A_c_1094_n ) capacitor c=0.0391552f //x=22.2 //y=0 \
 //x2=29.515 //y2=1.85
cc_54 ( N_GND_c_11_p N_A_c_1094_n ) capacitor c=0.0439804f //x=25.53 //y=0 \
 //x2=29.515 //y2=1.85
cc_55 ( N_GND_c_12_p N_A_c_1094_n ) capacitor c=0.0447716f //x=27.75 //y=0 \
 //x2=29.515 //y2=1.85
cc_56 ( N_GND_M5_noxref_s N_A_c_1094_n ) capacitor c=0.0183637f //x=9.375 \
 //y=0.37 //x2=29.515 //y2=1.85
cc_57 ( N_GND_M6_noxref_s N_A_c_1094_n ) capacitor c=0.0200331f //x=11.595 \
 //y=0.37 //x2=29.515 //y2=1.85
cc_58 ( N_GND_M11_noxref_s N_A_c_1094_n ) capacitor c=0.0183637f //x=20.475 \
 //y=0.37 //x2=29.515 //y2=1.85
cc_59 ( N_GND_M14_noxref_s N_A_c_1094_n ) capacitor c=0.0200331f //x=26.025 \
 //y=0.37 //x2=29.515 //y2=1.85
cc_60 ( N_GND_c_16_p N_A_c_1132_n ) capacitor c=0.327127f //x=38.48 //y=0 \
 //x2=3.415 //y2=1.85
cc_61 ( N_GND_c_3_p N_A_c_1132_n ) capacitor c=0.00642784f //x=2.22 //y=0 \
 //x2=3.415 //y2=1.85
cc_62 ( N_GND_c_16_p N_A_c_1134_n ) capacitor c=2.30154e-19 //x=38.48 //y=0 \
 //x2=29.6 //y2=2.105
cc_63 ( N_GND_c_3_p A ) capacitor c=0.00676236f //x=2.22 //y=0 //x2=3.33 \
 //y2=2.96
cc_64 ( N_GND_c_12_p A ) capacitor c=4.34469e-19 //x=27.75 //y=0 //x2=29.6 \
 //y2=2.59
cc_65 ( N_GND_c_13_p A ) capacitor c=6.38128e-19 //x=31.08 //y=0 //x2=29.6 \
 //y2=2.59
cc_66 ( N_GND_c_3_p A ) capacitor c=0.00822147f //x=2.22 //y=0 //x2=3.33 \
 //y2=2.22
cc_67 ( N_GND_M1_noxref_d A ) capacitor c=2.10573e-19 //x=3.21 //y=0.87 \
 //x2=3.33 //y2=2.22
cc_68 ( N_GND_c_12_p A ) capacitor c=3.61829e-19 //x=27.75 //y=0 //x2=29.6 \
 //y2=2.22
cc_69 ( N_GND_c_13_p A ) capacitor c=5.01476e-19 //x=31.08 //y=0 //x2=29.6 \
 //y2=2.22
cc_70 ( N_GND_c_16_p N_A_c_1142_n ) capacitor c=0.00187124f //x=38.48 //y=0 \
 //x2=0.74 //y2=2.085
cc_71 ( N_GND_c_71_p N_A_c_1142_n ) capacitor c=8.01092e-19 //x=1.03 //y=0.535 \
 //x2=0.74 //y2=2.085
cc_72 ( N_GND_c_2_p N_A_c_1142_n ) capacitor c=0.0285526f //x=0.63 //y=0 \
 //x2=0.74 //y2=2.085
cc_73 ( N_GND_c_3_p N_A_c_1142_n ) capacitor c=0.00143388f //x=2.22 //y=0 \
 //x2=0.74 //y2=2.085
cc_74 ( N_GND_M0_noxref_s N_A_c_1142_n ) capacitor c=0.0110965f //x=0.495 \
 //y=0.37 //x2=0.74 //y2=2.085
cc_75 ( N_GND_c_71_p N_A_c_1147_n ) capacitor c=0.0120496f //x=1.03 //y=0.535 \
 //x2=0.85 //y2=0.91
cc_76 ( N_GND_M0_noxref_s N_A_c_1147_n ) capacitor c=0.0316686f //x=0.495 \
 //y=0.37 //x2=0.85 //y2=0.91
cc_77 ( N_GND_c_2_p N_A_c_1149_n ) capacitor c=0.0114366f //x=0.63 //y=0 \
 //x2=0.85 //y2=1.92
cc_78 ( N_GND_M0_noxref_s N_A_c_1150_n ) capacitor c=0.00483274f //x=0.495 \
 //y=0.37 //x2=1.225 //y2=0.755
cc_79 ( N_GND_c_79_p N_A_c_1151_n ) capacitor c=0.0118602f //x=1.515 //y=0.535 \
 //x2=1.38 //y2=0.91
cc_80 ( N_GND_M0_noxref_s N_A_c_1151_n ) capacitor c=0.0143355f //x=0.495 \
 //y=0.37 //x2=1.38 //y2=0.91
cc_81 ( N_GND_M0_noxref_s N_A_c_1153_n ) capacitor c=0.0074042f //x=0.495 \
 //y=0.37 //x2=1.38 //y2=1.255
cc_82 ( N_GND_c_82_p N_A_c_1154_n ) capacitor c=0.00134217f //x=3.315 //y=0 \
 //x2=3.135 //y2=0.87
cc_83 ( N_GND_M1_noxref_d N_A_c_1154_n ) capacitor c=0.00220047f //x=3.21 \
 //y=0.87 //x2=3.135 //y2=0.87
cc_84 ( N_GND_M1_noxref_d N_A_c_1156_n ) capacitor c=0.00255985f //x=3.21 \
 //y=0.87 //x2=3.135 //y2=1.215
cc_85 ( N_GND_c_3_p N_A_c_1157_n ) capacitor c=0.00733575f //x=2.22 //y=0 \
 //x2=3.135 //y2=1.92
cc_86 ( N_GND_M1_noxref_d N_A_c_1158_n ) capacitor c=0.013135f //x=3.21 \
 //y=0.87 //x2=3.51 //y2=0.715
cc_87 ( N_GND_M1_noxref_d N_A_c_1159_n ) capacitor c=0.00193136f //x=3.21 \
 //y=0.87 //x2=3.51 //y2=1.37
cc_88 ( N_GND_c_22_p N_A_c_1160_n ) capacitor c=0.00129817f //x=5.38 //y=0 \
 //x2=3.665 //y2=0.87
cc_89 ( N_GND_M1_noxref_d N_A_c_1160_n ) capacitor c=0.00257848f //x=3.21 \
 //y=0.87 //x2=3.665 //y2=0.87
cc_90 ( N_GND_M1_noxref_d N_A_c_1162_n ) capacitor c=0.00255985f //x=3.21 \
 //y=0.87 //x2=3.665 //y2=1.215
cc_91 ( N_GND_c_71_p N_A_c_1163_n ) capacitor c=2.1838e-19 //x=1.03 //y=0.535 \
 //x2=0.74 //y2=2.085
cc_92 ( N_GND_c_2_p N_A_c_1163_n ) capacitor c=0.00769211f //x=0.63 //y=0 \
 //x2=0.74 //y2=2.085
cc_93 ( N_GND_M0_noxref_s N_A_c_1163_n ) capacitor c=0.00655738f //x=0.495 \
 //y=0.37 //x2=0.74 //y2=2.085
cc_94 ( N_GND_c_16_p N_noxref_4_c_1465_n ) capacitor c=0.0225635f //x=38.48 \
 //y=0 //x2=7.655 //y2=2.59
cc_95 ( N_GND_c_95_p N_noxref_4_c_1465_n ) capacitor c=0.0015622f //x=2.05 \
 //y=0 //x2=7.655 //y2=2.59
cc_96 ( N_GND_c_82_p N_noxref_4_c_1465_n ) capacitor c=0.00277229f //x=3.315 \
 //y=0 //x2=7.655 //y2=2.59
cc_97 ( N_GND_c_3_p N_noxref_4_c_1465_n ) capacitor c=0.038878f //x=2.22 //y=0 \
 //x2=7.655 //y2=2.59
cc_98 ( N_GND_c_4_p N_noxref_4_c_1465_n ) capacitor c=0.0262396f //x=5.55 \
 //y=0 //x2=7.655 //y2=2.59
cc_99 ( N_GND_M0_noxref_s N_noxref_4_c_1465_n ) capacitor c=0.00248261f \
 //x=0.495 //y=0.37 //x2=7.655 //y2=2.59
cc_100 ( N_GND_c_16_p N_noxref_4_c_1471_n ) capacitor c=0.00231366f //x=38.48 \
 //y=0 //x2=1.595 //y2=2.59
cc_101 ( N_GND_c_3_p N_noxref_4_c_1471_n ) capacitor c=0.00209945f //x=2.22 \
 //y=0 //x2=1.595 //y2=2.59
cc_102 ( N_GND_M0_noxref_s N_noxref_4_c_1471_n ) capacitor c=0.00120637f \
 //x=0.495 //y=0.37 //x2=1.595 //y2=2.59
cc_103 ( N_GND_c_16_p N_noxref_4_c_1474_n ) capacitor c=0.00129718f //x=38.48 \
 //y=0 //x2=1.395 //y2=2.08
cc_104 ( N_GND_c_3_p N_noxref_4_c_1474_n ) capacitor c=0.0254284f //x=2.22 \
 //y=0 //x2=1.395 //y2=2.08
cc_105 ( N_GND_M0_noxref_s N_noxref_4_c_1474_n ) capacitor c=0.00949589f \
 //x=0.495 //y=0.37 //x2=1.395 //y2=2.08
cc_106 ( N_GND_c_2_p N_noxref_4_c_1477_n ) capacitor c=0.00113816f //x=0.63 \
 //y=0 //x2=1.48 //y2=2.59
cc_107 ( N_GND_c_3_p N_noxref_4_c_1477_n ) capacitor c=5.56859e-19 //x=2.22 \
 //y=0 //x2=1.48 //y2=2.59
cc_108 ( N_GND_M0_noxref_s N_noxref_4_c_1477_n ) capacitor c=2.30929e-19 \
 //x=0.495 //y=0.37 //x2=1.48 //y2=2.59
cc_109 ( N_GND_c_4_p N_noxref_4_c_1480_n ) capacitor c=6.69104e-19 //x=5.55 \
 //y=0 //x2=7.77 //y2=2.085
cc_110 ( N_GND_c_5_p N_noxref_4_c_1480_n ) capacitor c=0.00180575f //x=8.88 \
 //y=0 //x2=7.77 //y2=2.085
cc_111 ( N_GND_c_16_p N_noxref_4_M0_noxref_d ) capacitor c=0.00136354f \
 //x=38.48 //y=0 //x2=0.925 //y2=0.91
cc_112 ( N_GND_c_71_p N_noxref_4_M0_noxref_d ) capacitor c=0.0151737f //x=1.03 \
 //y=0.535 //x2=0.925 //y2=0.91
cc_113 ( N_GND_c_2_p N_noxref_4_M0_noxref_d ) capacitor c=0.00942176f //x=0.63 \
 //y=0 //x2=0.925 //y2=0.91
cc_114 ( N_GND_c_3_p N_noxref_4_M0_noxref_d ) capacitor c=0.00934943f //x=2.22 \
 //y=0 //x2=0.925 //y2=0.91
cc_115 ( N_GND_M0_noxref_s N_noxref_4_M0_noxref_d ) capacitor c=0.076995f \
 //x=0.495 //y=0.37 //x2=0.925 //y2=0.91
cc_116 ( N_GND_c_4_p N_noxref_5_c_1626_n ) capacitor c=0.0146874f //x=5.55 \
 //y=0 //x2=6.66 //y2=2.085
cc_117 ( N_GND_c_6_p N_noxref_5_c_1627_n ) capacitor c=0.00152332f //x=11.1 \
 //y=0 //x2=9.62 //y2=3.33
cc_118 ( N_GND_M5_noxref_s N_noxref_5_c_1628_n ) capacitor c=0.00157668f \
 //x=9.375 //y=0.37 //x2=9.905 //y2=2.08
cc_119 ( N_GND_c_26_p N_noxref_5_c_1629_n ) capacitor c=0.00157668f //x=9.9 \
 //y=0.535 //x2=9.705 //y2=2.08
cc_120 ( N_GND_c_5_p N_noxref_5_c_1629_n ) capacitor c=0.0288208f //x=8.88 \
 //y=0 //x2=9.705 //y2=2.08
cc_121 ( N_GND_M5_noxref_s N_noxref_5_c_1629_n ) capacitor c=0.00514876f \
 //x=9.375 //y=0.37 //x2=9.705 //y2=2.08
cc_122 ( N_GND_c_23_p N_noxref_5_c_1632_n ) capacitor c=0.00134217f //x=6.645 \
 //y=0 //x2=6.465 //y2=0.87
cc_123 ( N_GND_M3_noxref_d N_noxref_5_c_1632_n ) capacitor c=0.00220047f \
 //x=6.54 //y=0.87 //x2=6.465 //y2=0.87
cc_124 ( N_GND_M3_noxref_d N_noxref_5_c_1634_n ) capacitor c=0.00255985f \
 //x=6.54 //y=0.87 //x2=6.465 //y2=1.215
cc_125 ( N_GND_c_4_p N_noxref_5_c_1635_n ) capacitor c=0.00176175f //x=5.55 \
 //y=0 //x2=6.465 //y2=1.525
cc_126 ( N_GND_c_4_p N_noxref_5_c_1636_n ) capacitor c=0.00752966f //x=5.55 \
 //y=0 //x2=6.465 //y2=1.92
cc_127 ( N_GND_M3_noxref_d N_noxref_5_c_1637_n ) capacitor c=0.013135f \
 //x=6.54 //y=0.87 //x2=6.84 //y2=0.715
cc_128 ( N_GND_M3_noxref_d N_noxref_5_c_1638_n ) capacitor c=0.00193136f \
 //x=6.54 //y=0.87 //x2=6.84 //y2=1.37
cc_129 ( N_GND_c_24_p N_noxref_5_c_1639_n ) capacitor c=0.00129817f //x=8.71 \
 //y=0 //x2=6.995 //y2=0.87
cc_130 ( N_GND_M3_noxref_d N_noxref_5_c_1639_n ) capacitor c=0.00257848f \
 //x=6.54 //y=0.87 //x2=6.995 //y2=0.87
cc_131 ( N_GND_M3_noxref_d N_noxref_5_c_1641_n ) capacitor c=0.00255985f \
 //x=6.54 //y=0.87 //x2=6.995 //y2=1.215
cc_132 ( N_GND_c_16_p N_noxref_5_M5_noxref_d ) capacitor c=0.00108086f \
 //x=38.48 //y=0 //x2=9.795 //y2=0.91
cc_133 ( N_GND_c_5_p N_noxref_5_M5_noxref_d ) capacitor c=0.00686786f //x=8.88 \
 //y=0 //x2=9.795 //y2=0.91
cc_134 ( N_GND_c_6_p N_noxref_5_M5_noxref_d ) capacitor c=0.00737105f //x=11.1 \
 //y=0 //x2=9.795 //y2=0.91
cc_135 ( N_GND_M5_noxref_s N_noxref_5_M5_noxref_d ) capacitor c=0.0916952f \
 //x=9.375 //y=0.37 //x2=9.795 //y2=0.91
cc_136 ( N_GND_c_4_p N_B_c_1801_n ) capacitor c=0.00750857f //x=5.55 //y=0 \
 //x2=10.245 //y2=2.96
cc_137 ( N_GND_c_5_p N_B_c_1801_n ) capacitor c=0.0110081f //x=8.88 //y=0 \
 //x2=10.245 //y2=2.96
cc_138 ( N_GND_c_3_p N_B_c_1803_n ) capacitor c=5.75615e-19 //x=2.22 //y=0 \
 //x2=4.44 //y2=2.085
cc_139 ( N_GND_c_4_p N_B_c_1803_n ) capacitor c=0.00175406f //x=5.55 //y=0 \
 //x2=4.44 //y2=2.085
cc_140 ( N_GND_c_16_p N_B_c_1805_n ) capacitor c=0.00115109f //x=38.48 //y=0 \
 //x2=10.36 //y2=2.085
cc_141 ( N_GND_c_27_p N_B_c_1805_n ) capacitor c=4.37745e-19 //x=10.385 \
 //y=0.535 //x2=10.36 //y2=2.085
cc_142 ( N_GND_c_5_p N_B_c_1805_n ) capacitor c=0.00179096f //x=8.88 //y=0 \
 //x2=10.36 //y2=2.085
cc_143 ( N_GND_c_6_p N_B_c_1805_n ) capacitor c=0.0276202f //x=11.1 //y=0 \
 //x2=10.36 //y2=2.085
cc_144 ( N_GND_M5_noxref_s N_B_c_1805_n ) capacitor c=0.00773905f //x=9.375 \
 //y=0.37 //x2=10.36 //y2=2.085
cc_145 ( N_GND_c_12_p N_B_c_1810_n ) capacitor c=0.0170136f //x=27.75 //y=0 \
 //x2=28.86 //y2=2.08
cc_146 ( N_GND_c_26_p N_B_c_1811_n ) capacitor c=0.0119174f //x=9.9 //y=0.535 \
 //x2=9.72 //y2=0.91
cc_147 ( N_GND_M5_noxref_s N_B_c_1811_n ) capacitor c=0.0143355f //x=9.375 \
 //y=0.37 //x2=9.72 //y2=0.91
cc_148 ( N_GND_M5_noxref_s N_B_c_1813_n ) capacitor c=0.0074042f //x=9.375 \
 //y=0.37 //x2=9.72 //y2=1.255
cc_149 ( N_GND_M5_noxref_s N_B_c_1814_n ) capacitor c=0.00489f //x=9.375 \
 //y=0.37 //x2=10.095 //y2=0.755
cc_150 ( N_GND_c_27_p N_B_c_1815_n ) capacitor c=0.0123171f //x=10.385 \
 //y=0.535 //x2=10.25 //y2=0.91