// File: HA.spi.pex
// Created: Tue Oct 15 15:49:12 2024
// Program "Calibre xRC"
// Version "v2023.2_27.15"
// Nominal Temperature: 30C
// Circuit Temperature: 30C
// 
simulator lang=spectre
subckt PM_HA\%GND ( 1 29 33 36 41 49 52 57 61 83 87 90 95 99 107 115 121 127 \
 132 137 141 154 166 178 180 183 188 195 196 197 198 199 200 )
c249 ( 200 0 ) capacitor c=0.0583152f //x=14.925 //y=0.37
c250 ( 199 0 ) capacitor c=0.0210151f //x=12.09 //y=0.87
c251 ( 198 0 ) capacitor c=0.0210151f //x=8.76 //y=0.87
c252 ( 197 0 ) capacitor c=0.0572847f //x=6.045 //y=0.37
c253 ( 196 0 ) capacitor c=0.0578714f //x=3.825 //y=0.37
c254 ( 195 0 ) capacitor c=0.0208198f //x=0.99 //y=0.865
c255 ( 188 0 ) capacitor c=0.229233f //x=16.02 //y=0
c256 ( 183 0 ) capacitor c=0.103612f //x=14.43 //y=0
c257 ( 182 0 ) capacitor c=0.0044012f //x=12.21 //y=0
c258 ( 180 0 ) capacitor c=0.104587f //x=11.1 //y=0
c259 ( 179 0 ) capacitor c=0.0044012f //x=8.95 //y=0
c260 ( 178 0 ) capacitor c=0.102385f //x=7.77 //y=0
c261 ( 166 0 ) capacitor c=0.0972387f //x=5.55 //y=0
c262 ( 154 0 ) capacitor c=0.10149f //x=3.33 //y=0
c263 ( 153 0 ) capacitor c=0.00440095f //x=1.18 //y=0
c264 ( 144 0 ) capacitor c=0.00592191f //x=16.02 //y=0.45
c265 ( 141 0 ) capacitor c=0.00644318f //x=15.935 //y=0.535
c266 ( 140 0 ) capacitor c=0.00479856f //x=15.535 //y=0.45
c267 ( 137 0 ) capacitor c=0.00531808f //x=15.45 //y=0.535
c268 ( 132 0 ) capacitor c=0.00587411f //x=15.05 //y=0.45
c269 ( 127 0 ) capacitor c=0.0160123f //x=14.965 //y=0
c270 ( 121 0 ) capacitor c=0.0720515f //x=14.26 //y=0
c271 ( 115 0 ) capacitor c=0.0389232f //x=12.195 //y=0
c272 ( 107 0 ) capacitor c=0.072035f //x=10.93 //y=0
c273 ( 99 0 ) capacitor c=0.0389232f //x=8.865 //y=0
c274 ( 96 0 ) capacitor c=0.0360673f //x=7.235 //y=0
c275 ( 95 0 ) capacitor c=0.0160123f //x=7.6 //y=0
c276 ( 90 0 ) capacitor c=0.00587411f //x=7.15 //y=0.45
c277 ( 87 0 ) capacitor c=0.00531771f //x=7.065 //y=0.535
c278 ( 86 0 ) capacitor c=0.00479856f //x=6.665 //y=0.45
c279 ( 83 0 ) capacitor c=0.00643449f //x=6.58 //y=0.535
c280 ( 78 0 ) capacitor c=0.00592191f //x=6.18 //y=0.45
c281 ( 73 0 ) capacitor c=0.0190475f //x=6.095 //y=0
c282 ( 70 0 ) capacitor c=0.0360689f //x=5.015 //y=0
c283 ( 69 0 ) capacitor c=0.0184787f //x=5.38 //y=0
c284 ( 64 0 ) capacitor c=0.00583665f //x=4.93 //y=0.45
c285 ( 61 0 ) capacitor c=0.00536917f //x=4.845 //y=0.535
c286 ( 60 0 ) capacitor c=0.00479856f //x=4.445 //y=0.45
c287 ( 57 0 ) capacitor c=0.00640467f //x=4.36 //y=0.535
c288 ( 52 0 ) capacitor c=0.00588377f //x=3.96 //y=0.45
c289 ( 49 0 ) capacitor c=0.0164879f //x=3.875 //y=0
c290 ( 41 0 ) capacitor c=0.0720403f //x=3.16 //y=0
c291 ( 36 0 ) capacitor c=0.179504f //x=0.74 //y=0
c292 ( 33 0 ) capacitor c=0.0426751f //x=1.095 //y=0
c293 ( 29 0 ) capacitor c=0.566732f //x=15.91 //y=0
r294 (  187 188 ) resistor r=3.94398 //w=0.357 //l=0.11 //layer=li \
 //thickness=0.1 //x=15.91 //y=0 //x2=16.02 //y2=0
r295 (  185 187 ) resistor r=13.4454 //w=0.357 //l=0.375 //layer=li \
 //thickness=0.1 //x=15.535 //y=0 //x2=15.91 //y2=0
r296 (  184 185 ) resistor r=17.3894 //w=0.357 //l=0.485 //layer=li \
 //thickness=0.1 //x=15.05 //y=0 //x2=15.535 //y2=0
r297 (  170 171 ) resistor r=4.30252 //w=0.357 //l=0.12 //layer=li \
 //thickness=0.1 //x=7.03 //y=0 //x2=7.15 //y2=0
r298 (  168 170 ) resistor r=13.0868 //w=0.357 //l=0.365 //layer=li \
 //thickness=0.1 //x=6.665 //y=0 //x2=7.03 //y2=0
r299 (  167 168 ) resistor r=17.3894 //w=0.357 //l=0.485 //layer=li \
 //thickness=0.1 //x=6.18 //y=0 //x2=6.665 //y2=0
r300 (  158 159 ) resistor r=17.3894 //w=0.357 //l=0.485 //layer=li \
 //thickness=0.1 //x=4.445 //y=0 //x2=4.93 //y2=0
r301 (  157 158 ) resistor r=0.179272 //w=0.357 //l=0.005 //layer=li \
 //thickness=0.1 //x=4.44 //y=0 //x2=4.445 //y2=0
r302 (  155 157 ) resistor r=17.2101 //w=0.357 //l=0.48 //layer=li \
 //thickness=0.1 //x=3.96 //y=0 //x2=4.44 //y2=0
r303 (  145 200 ) resistor r=5.4201 //w=0.17 //l=0.085 //layer=li \
 //thickness=0.1 //x=16.02 //y=0.62 //x2=16.02 //y2=0.535
r304 (  145 200 ) resistor r=41.4118 //w=0.187 //l=0.605 //layer=li \
 //thickness=0.1 //x=16.02 //y=0.62 //x2=16.02 //y2=1.225
r305 (  144 200 ) resistor r=5.4201 //w=0.17 //l=0.085 //layer=li \
 //thickness=0.1 //x=16.02 //y=0.45 //x2=16.02 //y2=0.535
r306 (  143 188 ) resistor r=5.03728 //w=0.34 //l=0.17 //layer=li \
 //thickness=0.1 //x=16.02 //y=0.17 //x2=16.02 //y2=0
r307 (  143 144 ) resistor r=19.1658 //w=0.187 //l=0.28 //layer=li \
 //thickness=0.1 //x=16.02 //y=0.17 //x2=16.02 //y2=0.45
r308 (  142 200 ) resistor r=5.4201 //w=0.17 //l=0.085 //layer=li \
 //thickness=0.1 //x=15.62 //y=0.535 //x2=15.535 //y2=0.535
r309 (  141 200 ) resistor r=1.40859 //w=0.34 //l=0.085 //layer=li \
 //thickness=0.1 //x=15.935 //y=0.535 //x2=16.02 //y2=0.535
r310 (  141 142 ) resistor r=21.5615 //w=0.187 //l=0.315 //layer=li \
 //thickness=0.1 //x=15.935 //y=0.535 //x2=15.62 //y2=0.535
r311 (  140 200 ) resistor r=1.40859 //w=0.34 //l=0.085 //layer=li \
 //thickness=0.1 //x=15.535 //y=0.45 //x2=15.535 //y2=0.535
r312 (  139 185 ) resistor r=5.03728 //w=0.34 //l=0.17 //layer=li \
 //thickness=0.1 //x=15.535 //y=0.17 //x2=15.535 //y2=0
r313 (  139 140 ) resistor r=19.1658 //w=0.187 //l=0.28 //layer=li \
 //thickness=0.1 //x=15.535 //y=0.17 //x2=15.535 //y2=0.45
r314 (  138 200 ) resistor r=1.40859 //w=0.34 //l=0.085 //layer=li \
 //thickness=0.1 //x=15.135 //y=0.535 //x2=15.05 //y2=0.535
r315 (  137 200 ) resistor r=5.4201 //w=0.17 //l=0.085 //layer=li \
 //thickness=0.1 //x=15.45 //y=0.535 //x2=15.535 //y2=0.535
r316 (  137 138 ) resistor r=21.5615 //w=0.187 //l=0.315 //layer=li \
 //thickness=0.1 //x=15.45 //y=0.535 //x2=15.135 //y2=0.535
r317 (  133 200 ) resistor r=5.4201 //w=0.17 //l=0.085 //layer=li \
 //thickness=0.1 //x=15.05 //y=0.62 //x2=15.05 //y2=0.535
r318 (  133 200 ) resistor r=41.4118 //w=0.187 //l=0.605 //layer=li \
 //thickness=0.1 //x=15.05 //y=0.62 //x2=15.05 //y2=1.225
r319 (  132 200 ) resistor r=5.4201 //w=0.17 //l=0.085 //layer=li \
 //thickness=0.1 //x=15.05 //y=0.45 //x2=15.05 //y2=0.535
r320 (  131 184 ) resistor r=5.03728 //w=0.34 //l=0.17 //layer=li \
 //thickness=0.1 //x=15.05 //y=0.17 //x2=15.05 //y2=0
r321 (  131 132 ) resistor r=19.1658 //w=0.187 //l=0.28 //layer=li \
 //thickness=0.1 //x=15.05 //y=0.17 //x2=15.05 //y2=0.45
r322 (  128 183 ) resistor r=5.4201 //w=0.34 //l=0.17 //layer=li \
 //thickness=0.1 //x=14.6 //y=0 //x2=14.43 //y2=0
r323 (  128 130 ) resistor r=7.17087 //w=0.357 //l=0.2 //layer=li \
 //thickness=0.1 //x=14.6 //y=0 //x2=14.8 //y2=0
r324 (  127 184 ) resistor r=3.04762 //w=0.357 //l=0.085 //layer=li \
 //thickness=0.1 //x=14.965 //y=0 //x2=15.05 //y2=0
r325 (  127 130 ) resistor r=5.91597 //w=0.357 //l=0.165 //layer=li \
 //thickness=0.1 //x=14.965 //y=0 //x2=14.8 //y2=0
r326 (  122 182 ) resistor r=2.94794 //w=0.34 //l=0.085 //layer=li \
 //thickness=0.1 //x=12.365 //y=0 //x2=12.28 //y2=0
r327 (  122 124 ) resistor r=34.2409 //w=0.357 //l=0.955 //layer=li \
 //thickness=0.1 //x=12.365 //y=0 //x2=13.32 //y2=0
r328 (  121 183 ) resistor r=5.4201 //w=0.34 //l=0.17 //layer=li \
 //thickness=0.1 //x=14.26 //y=0 //x2=14.43 //y2=0
r329 (  121 124 ) resistor r=33.7031 //w=0.357 //l=0.94 //layer=li \
 //thickness=0.1 //x=14.26 //y=0 //x2=13.32 //y2=0
r330 (  117 182 ) resistor r=4.11603 //w=0.68 //l=0.17 //layer=li \
 //thickness=0.1 //x=12.28 //y=0.17 //x2=12.28 //y2=0
r331 (  117 199 ) resistor r=54.0749 //w=0.187 //l=0.79 //layer=li \
 //thickness=0.1 //x=12.28 //y=0.17 //x2=12.28 //y2=0.96
r332 (  116 180 ) resistor r=5.4201 //w=0.34 //l=0.17 //layer=li \
 //thickness=0.1 //x=11.27 //y=0 //x2=11.1 //y2=0
r333 (  115 182 ) resistor r=2.94794 //w=0.34 //l=0.085 //layer=li \
 //thickness=0.1 //x=12.195 //y=0 //x2=12.28 //y2=0
r334 (  115 116 ) resistor r=33.1653 //w=0.357 //l=0.925 //layer=li \
 //thickness=0.1 //x=12.195 //y=0 //x2=11.27 //y2=0
r335 (  110 112 ) resistor r=39.7983 //w=0.357 //l=1.11 //layer=li \
 //thickness=0.1 //x=9.62 //y=0 //x2=10.73 //y2=0
r336 (  108 179 ) resistor r=2.94794 //w=0.34 //l=0.085 //layer=li \
 //thickness=0.1 //x=9.035 //y=0 //x2=8.95 //y2=0
r337 (  108 110 ) resistor r=20.9748 //w=0.357 //l=0.585 //layer=li \
 //thickness=0.1 //x=9.035 //y=0 //x2=9.62 //y2=0
r338 (  107 180 ) resistor r=5.4201 //w=0.34 //l=0.17 //layer=li \
 //thickness=0.1 //x=10.93 //y=0 //x2=11.1 //y2=0
r339 (  107 112 ) resistor r=7.17087 //w=0.357 //l=0.2 //layer=li \
 //thickness=0.1 //x=10.93 //y=0 //x2=10.73 //y2=0
r340 (  103 179 ) resistor r=4.11603 //w=0.68 //l=0.17 //layer=li \
 //thickness=0.1 //x=8.95 //y=0.17 //x2=8.95 //y2=0
r341 (  103 198 ) resistor r=54.0749 //w=0.187 //l=0.79 //layer=li \
 //thickness=0.1 //x=8.95 //y=0.17 //x2=8.95 //y2=0.96
r342 (  100 178 ) resistor r=5.4201 //w=0.34 //l=0.17 //layer=li \
 //thickness=0.1 //x=7.94 //y=0 //x2=7.77 //y2=0
r343 (  100 102 ) resistor r=20.437 //w=0.357 //l=0.57 //layer=li \
 //thickness=0.1 //x=7.94 //y=0 //x2=8.51 //y2=0
r344 (  99 179 ) resistor r=2.94794 //w=0.34 //l=0.085 //layer=li \
 //thickness=0.1 //x=8.865 //y=0 //x2=8.95 //y2=0
r345 (  99 102 ) resistor r=12.7283 //w=0.357 //l=0.355 //layer=li \
 //thickness=0.1 //x=8.865 //y=0 //x2=8.51 //y2=0
r346 (  96 171 ) resistor r=3.04762 //w=0.357 //l=0.085 //layer=li \
 //thickness=0.1 //x=7.235 //y=0 //x2=7.15 //y2=0
r347 (  95 178 ) resistor r=5.4201 //w=0.34 //l=0.17 //layer=li \
 //thickness=0.1 //x=7.6 //y=0 //x2=7.77 //y2=0
r348 (  95 96 ) resistor r=13.0868 //w=0.357 //l=0.365 //layer=li \
 //thickness=0.1 //x=7.6 //y=0 //x2=7.235 //y2=0
r349 (  91 197 ) resistor r=5.4201 //w=0.17 //l=0.085 //layer=li \
 //thickness=0.1 //x=7.15 //y=0.62 //x2=7.15 //y2=0.535
r350 (  91 197 ) resistor r=41.4118 //w=0.187 //l=0.605 //layer=li \
 //thickness=0.1 //x=7.15 //y=0.62 //x2=7.15 //y2=1.225
r351 (  90 197 ) resistor r=5.4201 //w=0.17 //l=0.085 //layer=li \
 //thickness=0.1 //x=7.15 //y=0.45 //x2=7.15 //y2=0.535
r352 (  89 171 ) resistor r=5.03728 //w=0.34 //l=0.17 //layer=li \
 //thickness=0.1 //x=7.15 //y=0.17 //x2=7.15 //y2=0
r353 (  89 90 ) resistor r=19.1658 //w=0.187 //l=0.28 //layer=li \
 //thickness=0.1 //x=7.15 //y=0.17 //x2=7.15 //y2=0.45
r354 (  88 197 ) resistor r=5.4201 //w=0.17 //l=0.085 //layer=li \
 //thickness=0.1 //x=6.75 //y=0.535 //x2=6.665 //y2=0.535
r355 (  87 197 ) resistor r=1.40859 //w=0.34 //l=0.085 //layer=li \
 //thickness=0.1 //x=7.065 //y=0.535 //x2=7.15 //y2=0.535
r356 (  87 88 ) resistor r=21.5615 //w=0.187 //l=0.315 //layer=li \
 //thickness=0.1 //x=7.065 //y=0.535 //x2=6.75 //y2=0.535
r357 (  86 197 ) resistor r=1.40859 //w=0.34 //l=0.085 //layer=li \
 //thickness=0.1 //x=6.665 //y=0.45 //x2=6.665 //y2=0.535
r358 (  85 168 ) resistor r=5.03728 //w=0.34 //l=0.17 //layer=li \
 //thickness=0.1 //x=6.665 //y=0.17 //x2=6.665 //y2=0
r359 (  85 86 ) resistor r=19.1658 //w=0.187 //l=0.28 //layer=li \
 //thickness=0.1 //x=6.665 //y=0.17 //x2=6.665 //y2=0.45
r360 (  84 197 ) resistor r=1.40859 //w=0.34 //l=0.085 //layer=li \
 //thickness=0.1 //x=6.265 //y=0.535 //x2=6.18 //y2=0.535
r361 (  83 197 ) resistor r=5.4201 //w=0.17 //l=0.085 //layer=li \
 //thickness=0.1 //x=6.58 //y=0.535 //x2=6.665 //y2=0.535
r362 (  83 84 ) resistor r=21.5615 //w=0.187 //l=0.315 //layer=li \
 //thickness=0.1 //x=6.58 //y=0.535 //x2=6.265 //y2=0.535
r363 (  79 197 ) resistor r=5.4201 //w=0.17 //l=0.085 //layer=li \
 //thickness=0.1 //x=6.18 //y=0.62 //x2=6.18 //y2=0.535
r364 (  79 197 ) resistor r=41.4118 //w=0.187 //l=0.605 //layer=li \
 //thickness=0.1 //x=6.18 //y=0.62 //x2=6.18 //y2=1.225
r365 (  78 197 ) resistor r=5.4201 //w=0.17 //l=0.085 //layer=li \
 //thickness=0.1 //x=6.18 //y=0.45 //x2=6.18 //y2=0.535
r366 (  77 167 ) resistor r=5.03728 //w=0.34 //l=0.17 //layer=li \
 //thickness=0.1 //x=6.18 //y=0.17 //x2=6.18 //y2=0
r367 (  77 78 ) resistor r=19.1658 //w=0.187 //l=0.28 //layer=li \
 //thickness=0.1 //x=6.18 //y=0.17 //x2=6.18 //y2=0.45
r368 (  74 166 ) resistor r=5.4201 //w=0.34 //l=0.17 //layer=li \
 //thickness=0.1 //x=5.72 //y=0 //x2=5.55 //y2=0
r369 (  74 76 ) resistor r=7.17087 //w=0.357 //l=0.2 //layer=li \
 //thickness=0.1 //x=5.72 //y=0 //x2=5.92 //y2=0
r370 (  73 167 ) resistor r=3.04762 //w=0.357 //l=0.085 //layer=li \
 //thickness=0.1 //x=6.095 //y=0 //x2=6.18 //y2=0
r371 (  73 76 ) resistor r=6.27451 //w=0.357 //l=0.175 //layer=li \
 //thickness=0.1 //x=6.095 //y=0 //x2=5.92 //y2=0
r372 (  70 159 ) resistor r=3.04762 //w=0.357 //l=0.085 //layer=li \
 //thickness=0.1 //x=5.015 //y=0 //x2=4.93 //y2=0
r373 (  69 166 ) resistor r=5.4201 //w=0.34 //l=0.17 //layer=li \
 //thickness=0.1 //x=5.38 //y=0 //x2=5.55 //y2=0
r374 (  69 70 ) resistor r=13.0868 //w=0.357 //l=0.365 //layer=li \
 //thickness=0.1 //x=5.38 //y=0 //x2=5.015 //y2=0
r375 (  65 196 ) resistor r=5.4201 //w=0.17 //l=0.085 //layer=li \
 //thickness=0.1 //x=4.93 //y=0.62 //x2=4.93 //y2=0.535
r376 (  65 196 ) resistor r=41.4118 //w=0.187 //l=0.605 //layer=li \
 //thickness=0.1 //x=4.93 //y=0.62 //x2=4.93 //y2=1.225
r377 (  64 196 ) resistor r=5.4201 //w=0.17 //l=0.085 //layer=li \
 //thickness=0.1 //x=4.93 //y=0.45 //x2=4.93 //y2=0.535
r378 (  63 159 ) resistor r=5.03728 //w=0.34 //l=0.17 //layer=li \
 //thickness=0.1 //x=4.93 //y=0.17 //x2=4.93 //y2=0
r379 (  63 64 ) resistor r=19.1658 //w=0.187 //l=0.28 //layer=li \
 //thickness=0.1 //x=4.93 //y=0.17 //x2=4.93 //y2=0.45
r380 (  62 196 ) resistor r=5.4201 //w=0.17 //l=0.085 //layer=li \
 //thickness=0.1 //x=4.53 //y=0.535 //x2=4.445 //y2=0.535
r381 (  61 196 ) resistor r=1.40859 //w=0.34 //l=0.085 //layer=li \
 //thickness=0.1 //x=4.845 //y=0.535 //x2=4.93 //y2=0.535
r382 (  61 62 ) resistor r=21.5615 //w=0.187 //l=0.315 //layer=li \
 //thickness=0.1 //x=4.845 //y=0.535 //x2=4.53 //y2=0.535
r383 (  60 196 ) resistor r=1.40859 //w=0.34 //l=0.085 //layer=li \
 //thickness=0.1 //x=4.445 //y=0.45 //x2=4.445 //y2=0.535
r384 (  59 158 ) resistor r=5.03728 //w=0.34 //l=0.17 //layer=li \
 //thickness=0.1 //x=4.445 //y=0.17 //x2=4.445 //y2=0
r385 (  59 60 ) resistor r=19.1658 //w=0.187 //l=0.28 //layer=li \
 //thickness=0.1 //x=4.445 //y=0.17 //x2=4.445 //y2=0.45
r386 (  58 196 ) resistor r=1.40859 //w=0.34 //l=0.085 //layer=li \
 //thickness=0.1 //x=4.045 //y=0.535 //x2=3.96 //y2=0.535
r387 (  57 196 ) resistor r=5.4201 //w=0.17 //l=0.085 //layer=li \
 //thickness=0.1 //x=4.36 //y=0.535 //x2=4.445 //y2=0.535
r388 (  57 58 ) resistor r=21.5615 //w=0.187 //l=0.315 //layer=li \
 //thickness=0.1 //x=4.36 //y=0.535 //x2=4.045 //y2=0.535
r389 (  53 196 ) resistor r=5.4201 //w=0.17 //l=0.085 //layer=li \
 //thickness=0.1 //x=3.96 //y=0.62 //x2=3.96 //y2=0.535
r390 (  53 196 ) resistor r=41.4118 //w=0.187 //l=0.605 //layer=li \
 //thickness=0.1 //x=3.96 //y=0.62 //x2=3.96 //y2=1.225
r391 (  52 196 ) resistor r=5.4201 //w=0.17 //l=0.085 //layer=li \
 //thickness=0.1 //x=3.96 //y=0.45 //x2=3.96 //y2=0.535
r392 (  51 155 ) resistor r=5.03728 //w=0.34 //l=0.17 //layer=li \
 //thickness=0.1 //x=3.96 //y=0.17 //x2=3.96 //y2=0
r393 (  51 52 ) resistor r=19.1658 //w=0.187 //l=0.28 //layer=li \
 //thickness=0.1 //x=3.96 //y=0.17 //x2=3.96 //y2=0.45
r394 (  50 154 ) resistor r=5.4201 //w=0.34 //l=0.17 //layer=li \
 //thickness=0.1 //x=3.5 //y=0 //x2=3.33 //y2=0
r395 (  49 155 ) resistor r=3.04762 //w=0.357 //l=0.085 //layer=li \
 //thickness=0.1 //x=3.875 //y=0 //x2=3.96 //y2=0
r396 (  49 50 ) resistor r=13.4454 //w=0.357 //l=0.375 //layer=li \
 //thickness=0.1 //x=3.875 //y=0 //x2=3.5 //y2=0
r397 (  44 46 ) resistor r=39.7983 //w=0.357 //l=1.11 //layer=li \
 //thickness=0.1 //x=1.85 //y=0 //x2=2.96 //y2=0
r398 (  42 153 ) resistor r=2.94794 //w=0.34 //l=0.085 //layer=li \
 //thickness=0.1 //x=1.265 //y=0 //x2=1.18 //y2=0
r399 (  42 44 ) resistor r=20.9748 //w=0.357 //l=0.585 //layer=li \
 //thickness=0.1 //x=1.265 //y=0 //x2=1.85 //y2=0
r400 (  41 154 ) resistor r=5.4201 //w=0.34 //l=0.17 //layer=li \
 //thickness=0.1 //x=3.16 //y=0 //x2=3.33 //y2=0
r401 (  41 46 ) resistor r=7.17087 //w=0.357 //l=0.2 //layer=li \
 //thickness=0.1 //x=3.16 //y=0 //x2=2.96 //y2=0
r402 (  37 153 ) resistor r=4.11603 //w=0.68 //l=0.17 //layer=li \
 //thickness=0.1 //x=1.18 //y=0.17 //x2=1.18 //y2=0
r403 (  37 195 ) resistor r=53.7326 //w=0.187 //l=0.785 //layer=li \
 //thickness=0.1 //x=1.18 //y=0.17 //x2=1.18 //y2=0.955
r404 (  33 153 ) resistor r=2.94794 //w=0.34 //l=0.085 //layer=li \
 //thickness=0.1 //x=1.095 //y=0 //x2=1.18 //y2=0
r405 (  33 36 ) resistor r=12.7283 //w=0.357 //l=0.355 //layer=li \
 //thickness=0.1 //x=1.095 //y=0 //x2=0.74 //y2=0
r406 (  29 187 ) resistor r=3.1 //w=0.17 //l=0.51 //layer=mcon //count=3 \
 //x=15.91 //y=0 //x2=15.91 //y2=0
r407 (  27 130 ) resistor r=3.1 //w=0.17 //l=0.51 //layer=mcon //count=3 \
 //x=14.8 //y=0 //x2=14.8 //y2=0
r408 (  27 29 ) resistor r=0.460963 //w=0.301 //l=1.11 //layer=m1 \
 //thickness=0.36 //x=14.8 //y=0 //x2=15.91 //y2=0
r409 (  25 124 ) resistor r=3.1 //w=0.17 //l=0.51 //layer=mcon //count=3 \
 //x=13.32 //y=0 //x2=13.32 //y2=0
r410 (  25 27 ) resistor r=0.614618 //w=0.301 //l=1.48 //layer=m1 \
 //thickness=0.36 //x=13.32 //y=0 //x2=14.8 //y2=0
r411 (  23 182 ) resistor r=3.1 //w=0.17 //l=0.51 //layer=mcon //count=3 \
 //x=12.21 //y=0 //x2=12.21 //y2=0
r412 (  23 25 ) resistor r=0.460963 //w=0.301 //l=1.11 //layer=m1 \
 //thickness=0.36 //x=12.21 //y=0 //x2=13.32 //y2=0
r413 (  21 112 ) resistor r=3.1 //w=0.17 //l=0.51 //layer=mcon //count=3 \
 //x=10.73 //y=0 //x2=10.73 //y2=0
r414 (  21 23 ) resistor r=0.614618 //w=0.301 //l=1.48 //layer=m1 \
 //thickness=0.36 //x=10.73 //y=0 //x2=12.21 //y2=0
r415 (  19 110 ) resistor r=3.1 //w=0.17 //l=0.51 //layer=mcon //count=3 \
 //x=9.62 //y=0 //x2=9.62 //y2=0
r416 (  19 21 ) resistor r=0.460963 //w=0.301 //l=1.11 //layer=m1 \
 //thickness=0.36 //x=9.62 //y=0 //x2=10.73 //y2=0
r417 (  17 102 ) resistor r=3.1 //w=0.17 //l=0.51 //layer=mcon //count=3 \
 //x=8.51 //y=0 //x2=8.51 //y2=0
r418 (  17 19 ) resistor r=0.460963 //w=0.301 //l=1.11 //layer=m1 \
 //thickness=0.36 //x=8.51 //y=0 //x2=9.62 //y2=0
r419 (  14 170 ) resistor r=3.1 //w=0.17 //l=0.51 //layer=mcon //count=3 \
 //x=7.03 //y=0 //x2=7.03 //y2=0
r420 (  12 76 ) resistor r=3.1 //w=0.17 //l=0.51 //layer=mcon //count=3 \
 //x=5.92 //y=0 //x2=5.92 //y2=0
r421 (  12 14 ) resistor r=0.460963 //w=0.301 //l=1.11 //layer=m1 \
 //thickness=0.36 //x=5.92 //y=0 //x2=7.03 //y2=0
r422 (  10 157 ) resistor r=3.1 //w=0.17 //l=0.51 //layer=mcon //count=3 \
 //x=4.44 //y=0 //x2=4.44 //y2=0
r423 (  10 12 ) resistor r=0.614618 //w=0.301 //l=1.48 //layer=m1 \
 //thickness=0.36 //x=4.44 //y=0 //x2=5.92 //y2=0
r424 (  8 46 ) resistor r=3.1 //w=0.17 //l=0.51 //layer=mcon //count=3 \
 //x=2.96 //y=0 //x2=2.96 //y2=0
r425 (  8 10 ) resistor r=0.614618 //w=0.301 //l=1.48 //layer=m1 \
 //thickness=0.36 //x=2.96 //y=0 //x2=4.44 //y2=0
r426 (  6 44 ) resistor r=3.1 //w=0.17 //l=0.51 //layer=mcon //count=3 \
 //x=1.85 //y=0 //x2=1.85 //y2=0
r427 (  6 8 ) resistor r=0.460963 //w=0.301 //l=1.11 //layer=m1 \
 //thickness=0.36 //x=1.85 //y=0 //x2=2.96 //y2=0
r428 (  3 36 ) resistor r=3.1 //w=0.17 //l=0.51 //layer=mcon //count=3 \
 //x=0.74 //y=0 //x2=0.74 //y2=0
r429 (  3 6 ) resistor r=0.460963 //w=0.301 //l=1.11 //layer=m1 \
 //thickness=0.36 //x=0.74 //y=0 //x2=1.85 //y2=0
r430 (  1 17 ) resistor r=0.0768272 //w=0.301 //l=0.185 //layer=m1 \
 //thickness=0.36 //x=8.325 //y=0 //x2=8.51 //y2=0
r431 (  1 14 ) resistor r=0.537791 //w=0.301 //l=1.295 //layer=m1 \
 //thickness=0.36 //x=8.325 //y=0 //x2=7.03 //y2=0
ends PM_HA\%GND

subckt PM_HA\%VDD ( 1 29 41 49 59 65 73 83 87 97 105 109 117 125 133 139 149 \
 162 165 168 172 174 176 179 180 181 182 183 184 185 186 187 188 189 190 )
c238 ( 190 0 ) capacitor c=0.0420685f //x=15.83 //y=5.02
c239 ( 189 0 ) capacitor c=0.0433633f //x=14.97 //y=5.02
c240 ( 188 0 ) capacitor c=0.0266033f //x=12.185 //y=5.02
c241 ( 187 0 ) capacitor c=0.0265042f //x=8.855 //y=5.02
c242 ( 186 0 ) capacitor c=0.0432963f //x=6.96 //y=5.02
c243 ( 185 0 ) capacitor c=0.0420333f //x=6.09 //y=5.02
c244 ( 184 0 ) capacitor c=0.0432963f //x=4.74 //y=5.02
c245 ( 183 0 ) capacitor c=0.0422219f //x=3.87 //y=5.02
c246 ( 182 0 ) capacitor c=0.0381505f //x=2.405 //y=5.02
c247 ( 181 0 ) capacitor c=0.0240879f //x=1.525 //y=5.02
c248 ( 180 0 ) capacitor c=0.053196f //x=0.655 //y=5.02
c249 ( 179 0 ) capacitor c=0.232571f //x=15.91 //y=7.4
c250 ( 177 0 ) capacitor c=0.00591168f //x=15.095 //y=7.4
c251 ( 176 0 ) capacitor c=0.105702f //x=14.43 //y=7.4
c252 ( 175 0 ) capacitor c=0.00591168f //x=12.33 //y=7.4
c253 ( 174 0 ) capacitor c=0.110106f //x=11.1 //y=7.4
c254 ( 173 0 ) capacitor c=0.00591168f //x=9 //y=7.4
c255 ( 172 0 ) capacitor c=0.110701f //x=7.77 //y=7.4
c256 ( 171 0 ) capacitor c=0.00591168f //x=7.03 //y=7.4
c257 ( 169 0 ) capacitor c=0.00591168f //x=6.225 //y=7.4
c258 ( 168 0 ) capacitor c=0.1056f //x=5.55 //y=7.4
c259 ( 167 0 ) capacitor c=0.00591168f //x=4.885 //y=7.4
c260 ( 166 0 ) capacitor c=0.00591168f //x=4.005 //y=7.4
c261 ( 165 0 ) capacitor c=0.108116f //x=3.33 //y=7.4
c262 ( 164 0 ) capacitor c=0.00591168f //x=2.55 //y=7.4
c263 ( 163 0 ) capacitor c=0.00591168f //x=1.67 //y=7.4
c264 ( 162 0 ) capacitor c=0.248183f //x=0.74 //y=7.4
c265 ( 149 0 ) capacitor c=0.0289356f //x=15.89 //y=7.4
c266 ( 139 0 ) capacitor c=0.0181526f //x=15.01 //y=7.4
c267 ( 133 0 ) capacitor c=0.0747638f //x=14.26 //y=7.4
c268 ( 125 0 ) capacitor c=0.0428656f //x=12.245 //y=7.4
c269 ( 117 0 ) capacitor c=0.0750963f //x=10.93 //y=7.4
c270 ( 109 0 ) capacitor c=0.042884f //x=8.915 //y=7.4
c271 ( 105 0 ) capacitor c=0.0181526f //x=7.6 //y=7.4
c272 ( 97 0 ) capacitor c=0.0291066f //x=7.02 //y=7.4
c273 ( 87 0 ) capacitor c=0.0186283f //x=6.14 //y=7.4
c274 ( 83 0 ) capacitor c=0.0181526f //x=5.38 //y=7.4
c275 ( 73 0 ) capacitor c=0.0289624f //x=4.8 //y=7.4
c276 ( 65 0 ) capacitor c=0.0186283f //x=3.92 //y=7.4
c277 ( 59 0 ) capacitor c=0.0236224f //x=3.16 //y=7.4
c278 ( 49 0 ) capacitor c=0.0288639f //x=2.465 //y=7.4
c279 ( 41 0 ) capacitor c=0.028955f //x=1.585 //y=7.4
c280 ( 29 0 ) capacitor c=0.581105f //x=15.91 //y=7.4
r281 (  151 179 ) resistor r=4.11603 //w=0.68 //l=0.17 //layer=li \
 //thickness=0.1 //x=15.975 //y=7.23 //x2=15.975 //y2=7.4
r282 (  151 190 ) resistor r=56.4706 //w=0.187 //l=0.825 //layer=li \
 //thickness=0.1 //x=15.975 //y=7.23 //x2=15.975 //y2=6.405
r283 (  150 177 ) resistor r=2.94794 //w=0.34 //l=0.085 //layer=li \
 //thickness=0.1 //x=15.18 //y=7.4 //x2=15.095 //y2=7.4
r284 (  149 179 ) resistor r=2.94794 //w=0.34 //l=0.085 //layer=li \
 //thickness=0.1 //x=15.89 //y=7.4 //x2=15.975 //y2=7.4
r285 (  149 150 ) resistor r=25.4566 //w=0.357 //l=0.71 //layer=li \
 //thickness=0.1 //x=15.89 //y=7.4 //x2=15.18 //y2=7.4
r286 (  143 177 ) resistor r=4.11603 //w=0.68 //l=0.17 //layer=li \
 //thickness=0.1 //x=15.095 //y=7.23 //x2=15.095 //y2=7.4
r287 (  143 189 ) resistor r=56.4706 //w=0.187 //l=0.825 //layer=li \
 //thickness=0.1 //x=15.095 //y=7.23 //x2=15.095 //y2=6.405
r288 (  140 176 ) resistor r=5.4201 //w=0.34 //l=0.17 //layer=li \
 //thickness=0.1 //x=14.6 //y=7.4 //x2=14.43 //y2=7.4
r289 (  140 142 ) resistor r=7.17087 //w=0.357 //l=0.2 //layer=li \
 //thickness=0.1 //x=14.6 //y=7.4 //x2=14.8 //y2=7.4
r290 (  139 177 ) resistor r=2.94794 //w=0.34 //l=0.085 //layer=li \
 //thickness=0.1 //x=15.01 //y=7.4 //x2=15.095 //y2=7.4
r291 (  139 142 ) resistor r=7.52941 //w=0.357 //l=0.21 //layer=li \
 //thickness=0.1 //x=15.01 //y=7.4 //x2=14.8 //y2=7.4
r292 (  134 175 ) resistor r=2.94794 //w=0.34 //l=0.085 //layer=li \
 //thickness=0.1 //x=12.415 //y=7.4 //x2=12.33 //y2=7.4
r293 (  134 136 ) resistor r=32.4482 //w=0.357 //l=0.905 //layer=li \
 //thickness=0.1 //x=12.415 //y=7.4 //x2=13.32 //y2=7.4
r294 (  133 176 ) resistor r=5.4201 //w=0.34 //l=0.17 //layer=li \
 //thickness=0.1 //x=14.26 //y=7.4 //x2=14.43 //y2=7.4
r295 (  133 136 ) resistor r=33.7031 //w=0.357 //l=0.94 //layer=li \
 //thickness=0.1 //x=14.26 //y=7.4 //x2=13.32 //y2=7.4
r296 (  129 175 ) resistor r=4.11603 //w=0.68 //l=0.17 //layer=li \
 //thickness=0.1 //x=12.33 //y=7.23 //x2=12.33 //y2=7.4
r297 (  129 188 ) resistor r=80.4278 //w=0.187 //l=1.175 //layer=li \
 //thickness=0.1 //x=12.33 //y=7.23 //x2=12.33 //y2=6.055
r298 (  126 174 ) resistor r=5.4201 //w=0.34 //l=0.17 //layer=li \
 //thickness=0.1 //x=11.27 //y=7.4 //x2=11.1 //y2=7.4
r299 (  126 128 ) resistor r=33.7031 //w=0.357 //l=0.94 //layer=li \
 //thickness=0.1 //x=11.27 //y=7.4 //x2=12.21 //y2=7.4
r300 (  125 175 ) resistor r=2.94794 //w=0.34 //l=0.085 //layer=li \
 //thickness=0.1 //x=12.245 //y=7.4 //x2=12.33 //y2=7.4
r301 (  125 128 ) resistor r=1.2549 //w=0.357 //l=0.035 //layer=li \
 //thickness=0.1 //x=12.245 //y=7.4 //x2=12.21 //y2=7.4
r302 (  120 122 ) resistor r=39.7983 //w=0.357 //l=1.11 //layer=li \
 //thickness=0.1 //x=9.62 //y=7.4 //x2=10.73 //y2=7.4
r303 (  118 173 ) resistor r=2.94794 //w=0.34 //l=0.085 //layer=li \
 //thickness=0.1 //x=9.085 //y=7.4 //x2=9 //y2=7.4
r304 (  118 120 ) resistor r=19.1821 //w=0.357 //l=0.535 //layer=li \
 //thickness=0.1 //x=9.085 //y=7.4 //x2=9.62 //y2=7.4
r305 (  117 174 ) resistor r=5.4201 //w=0.34 //l=0.17 //layer=li \
 //thickness=0.1 //x=10.93 //y=7.4 //x2=11.1 //y2=7.4
r306 (  117 122 ) resistor r=7.17087 //w=0.357 //l=0.2 //layer=li \
 //thickness=0.1 //x=10.93 //y=7.4 //x2=10.73 //y2=7.4
r307 (  113 173 ) resistor r=4.11603 //w=0.68 //l=0.17 //layer=li \
 //thickness=0.1 //x=9 //y=7.23 //x2=9 //y2=7.4
r308 (  113 187 ) resistor r=80.4278 //w=0.187 //l=1.175 //layer=li \
 //thickness=0.1 //x=9 //y=7.23 //x2=9 //y2=6.055
r309 (  110 172 ) resistor r=5.4201 //w=0.34 //l=0.17 //layer=li \
 //thickness=0.1 //x=7.94 //y=7.4 //x2=7.77 //y2=7.4
r310 (  110 112 ) resistor r=20.437 //w=0.357 //l=0.57 //layer=li \
 //thickness=0.1 //x=7.94 //y=7.4 //x2=8.51 //y2=7.4
r311 (  109 173 ) resistor r=2.94794 //w=0.34 //l=0.085 //layer=li \
 //thickness=0.1 //x=8.915 //y=7.4 //x2=9 //y2=7.4
r312 (  109 112 ) resistor r=14.521 //w=0.357 //l=0.405 //layer=li \
 //thickness=0.1 //x=8.915 //y=7.4 //x2=8.51 //y2=7.4
r313 (  106 171 ) resistor r=2.94794 //w=0.34 //l=0.085 //layer=li \
 //thickness=0.1 //x=7.19 //y=7.4 //x2=7.105 //y2=7.4
r314 (  105 172 ) resistor r=5.4201 //w=0.34 //l=0.17 //layer=li \
 //thickness=0.1 //x=7.6 //y=7.4 //x2=7.77 //y2=7.4
r315 (  105 106 ) resistor r=14.7003 //w=0.357 //l=0.41 //layer=li \
 //thickness=0.1 //x=7.6 //y=7.4 //x2=7.19 //y2=7.4
r316 (  99 171 ) resistor r=4.11603 //w=0.68 //l=0.17 //layer=li \
 //thickness=0.1 //x=7.105 //y=7.23 //x2=7.105 //y2=7.4
r317 (  99 186 ) resistor r=56.4706 //w=0.187 //l=0.825 //layer=li \
 //thickness=0.1 //x=7.105 //y=7.23 //x2=7.105 //y2=6.405
r318 (  98 169 ) resistor r=2.94794 //w=0.34 //l=0.085 //layer=li \
 //thickness=0.1 //x=6.31 //y=7.4 //x2=6.225 //y2=7.4
r319 (  97 171 ) resistor r=2.94794 //w=0.34 //l=0.085 //layer=li \
 //thickness=0.1 //x=7.02 //y=7.4 //x2=7.105 //y2=7.4
r320 (  97 98 ) resistor r=25.4566 //w=0.357 //l=0.71 //layer=li \
 //thickness=0.1 //x=7.02 //y=7.4 //x2=6.31 //y2=7.4
r321 (  91 169 ) resistor r=4.11603 //w=0.68 //l=0.17 //layer=li \
 //thickness=0.1 //x=6.225 //y=7.23 //x2=6.225 //y2=7.4
r322 (  91 185 ) resistor r=56.4706 //w=0.187 //l=0.825 //layer=li \
 //thickness=0.1 //x=6.225 //y=7.23 //x2=6.225 //y2=6.405
r323 (  88 168 ) resistor r=5.4201 //w=0.34 //l=0.17 //layer=li \
 //thickness=0.1 //x=5.72 //y=7.4 //x2=5.55 //y2=7.4
r324 (  88 90 ) resistor r=7.17087 //w=0.357 //l=0.2 //layer=li \
 //thickness=0.1 //x=5.72 //y=7.4 //x2=5.92 //y2=7.4
r325 (  87 169 ) resistor r=2.94794 //w=0.34 //l=0.085 //layer=li \
 //thickness=0.1 //x=6.14 //y=7.4 //x2=6.225 //y2=7.4
r326 (  87 90 ) resistor r=7.88796 //w=0.357 //l=0.22 //layer=li \
 //thickness=0.1 //x=6.14 //y=7.4 //x2=5.92 //y2=7.4
r327 (  84 167 ) resistor r=2.94794 //w=0.34 //l=0.085 //layer=li \
 //thickness=0.1 //x=4.97 //y=7.4 //x2=4.885 //y2=7.4
r328 (  83 168 ) resistor r=5.4201 //w=0.34 //l=0.17 //layer=li \
 //thickness=0.1 //x=5.38 //y=7.4 //x2=5.55 //y2=7.4
r329 (  83 84 ) resistor r=14.7003 //w=0.357 //l=0.41 //layer=li \
 //thickness=0.1 //x=5.38 //y=7.4 //x2=4.97 //y2=7.4
r330 (  77 167 ) resistor r=4.11603 //w=0.68 //l=0.17 //layer=li \
 //thickness=0.1 //x=4.885 //y=7.23 //x2=4.885 //y2=7.4
r331 (  77 184 ) resistor r=56.4706 //w=0.187 //l=0.825 //layer=li \
 //thickness=0.1 //x=4.885 //y=7.23 //x2=4.885 //y2=6.405
r332 (  74 166 ) resistor r=2.94794 //w=0.34 //l=0.085 //layer=li \
 //thickness=0.1 //x=4.09 //y=7.4 //x2=4.005 //y2=7.4
r333 (  74 76 ) resistor r=12.549 //w=0.357 //l=0.35 //layer=li \
 //thickness=0.1 //x=4.09 //y=7.4 //x2=4.44 //y2=7.4
r334 (  73 167 ) resistor r=2.94794 //w=0.34 //l=0.085 //layer=li \
 //thickness=0.1 //x=4.8 //y=7.4 //x2=4.885 //y2=7.4
r335 (  73 76 ) resistor r=12.9076 //w=0.357 //l=0.36 //layer=li \
 //thickness=0.1 //x=4.8 //y=7.4 //x2=4.44 //y2=7.4
r336 (  67 166 ) resistor r=4.11603 //w=0.68 //l=0.17 //layer=li \
 //thickness=0.1 //x=4.005 //y=7.23 //x2=4.005 //y2=7.4
r337 (  67 183 ) resistor r=56.4706 //w=0.187 //l=0.825 //layer=li \
 //thickness=0.1 //x=4.005 //y=7.23 //x2=4.005 //y2=6.405
r338 (  66 165 ) resistor r=5.4201 //w=0.34 //l=0.17 //layer=li \
 //thickness=0.1 //x=3.5 //y=7.4 //x2=3.33 //y2=7.4
r339 (  65 166 ) resistor r=2.94794 //w=0.34 //l=0.085 //layer=li \
 //thickness=0.1 //x=3.92 //y=7.4 //x2=4.005 //y2=7.4
r340 (  65 66 ) resistor r=15.0588 //w=0.357 //l=0.42 //layer=li \
 //thickness=0.1 //x=3.92 //y=7.4 //x2=3.5 //y2=7.4
r341 (  60 164 ) resistor r=2.94794 //w=0.34 //l=0.085 //layer=li \
 //thickness=0.1 //x=2.635 //y=7.4 //x2=2.55 //y2=7.4
r342 (  60 62 ) resistor r=11.6527 //w=0.357 //l=0.325 //layer=li \
 //thickness=0.1 //x=2.635 //y=7.4 //x2=2.96 //y2=7.4
r343 (  59 165 ) resistor r=5.4201 //w=0.34 //l=0.17 //layer=li \
 //thickness=0.1 //x=3.16 //y=7.4 //x2=3.33 //y2=7.4
r344 (  59 62 ) resistor r=7.17087 //w=0.357 //l=0.2 //layer=li \
 //thickness=0.1 //x=3.16 //y=7.4 //x2=2.96 //y2=7.4
r345 (  53 164 ) resistor r=4.11603 //w=0.68 //l=0.17 //layer=li \
 //thickness=0.1 //x=2.55 //y=7.23 //x2=2.55 //y2=7.4
r346 (  53 182 ) resistor r=33.1979 //w=0.187 //l=0.485 //layer=li \