// File: HA.spi.HA.pxi
// Created: Tue Oct 15 15:49:12 2024
// 
simulator lang=spectre
x_PM_HA\%GND ( GND N_GND_c_8_p N_GND_c_46_p N_GND_c_1_p N_GND_c_9_p \
 N_GND_c_10_p N_GND_c_182_p N_GND_c_11_p N_GND_c_27_p N_GND_c_41_p \
 N_GND_c_60_p N_GND_c_220_p N_GND_c_110_p N_GND_c_63_p N_GND_c_69_p \
 N_GND_c_113_p N_GND_c_84_p N_GND_c_85_p N_GND_c_240_p N_GND_c_86_p \
 N_GND_c_95_p N_GND_c_2_p N_GND_c_3_p N_GND_c_4_p N_GND_c_5_p N_GND_c_6_p \
 N_GND_c_7_p N_GND_M0_noxref_d N_GND_M2_noxref_s N_GND_M3_noxref_s \
 N_GND_M4_noxref_d N_GND_M6_noxref_d N_GND_M8_noxref_s )  PM_HA\%GND
x_PM_HA\%VDD ( VDD N_VDD_c_257_p N_VDD_c_258_p N_VDD_c_259_p N_VDD_c_294_p \
 N_VDD_c_295_p N_VDD_c_272_p N_VDD_c_297_p N_VDD_c_298_p N_VDD_c_309_p \
 N_VDD_c_310_p N_VDD_c_311_p N_VDD_c_337_p N_VDD_c_348_p N_VDD_c_352_p \
 N_VDD_c_353_p N_VDD_c_354_p N_VDD_c_250_n N_VDD_c_251_n N_VDD_c_252_n \
 N_VDD_c_253_n N_VDD_c_254_n N_VDD_c_255_n N_VDD_c_256_n N_VDD_M9_noxref_s \
 N_VDD_M10_noxref_d N_VDD_M12_noxref_d N_VDD_M13_noxref_s N_VDD_M14_noxref_d \
 N_VDD_M15_noxref_s N_VDD_M16_noxref_d N_VDD_M17_noxref_d N_VDD_M21_noxref_d \
 N_VDD_M25_noxref_s N_VDD_M26_noxref_d )  PM_HA\%VDD
x_PM_HA\%noxref_3 ( N_noxref_3_c_488_n N_noxref_3_c_494_n N_noxref_3_c_517_n \
 N_noxref_3_c_521_n N_noxref_3_c_523_n N_noxref_3_c_495_n N_noxref_3_c_570_p \
 N_noxref_3_c_497_n N_noxref_3_c_498_n N_noxref_3_c_587_p \
 N_noxref_3_M2_noxref_g N_noxref_3_M13_noxref_g N_noxref_3_M14_noxref_g \
 N_noxref_3_c_503_n N_noxref_3_c_618_p N_noxref_3_c_619_p N_noxref_3_c_505_n \
 N_noxref_3_c_537_n N_noxref_3_c_538_n N_noxref_3_c_506_n N_noxref_3_c_610_p \
 N_noxref_3_c_507_n N_noxref_3_c_509_n N_noxref_3_c_510_n \
 N_noxref_3_M1_noxref_d N_noxref_3_M9_noxref_d N_noxref_3_M11_noxref_d )  \
 PM_HA\%noxref_3
x_PM_HA\%A ( N_A_c_630_n N_A_c_631_n N_A_c_683_n N_A_c_689_n A A A A A A A A A \
 A A A A A A N_A_c_632_n N_A_c_633_n N_A_c_638_n N_A_M0_noxref_g \
 N_A_M3_noxref_g N_A_M4_noxref_g N_A_M9_noxref_g N_A_M10_noxref_g \
 N_A_M15_noxref_g N_A_M16_noxref_g N_A_M17_noxref_g N_A_M18_noxref_g \
 N_A_c_639_n N_A_c_641_n N_A_c_642_n N_A_c_643_n N_A_c_644_n N_A_c_645_n \
 N_A_c_646_n N_A_c_648_n N_A_c_649_n N_A_c_806_p N_A_c_807_p N_A_c_651_n \
 N_A_c_714_n N_A_c_715_n N_A_c_652_n N_A_c_794_p N_A_c_653_n N_A_c_655_n \
 N_A_c_656_n N_A_c_658_n N_A_c_774_p N_A_c_659_n N_A_c_660_n N_A_c_661_n \
 N_A_c_662_n N_A_c_664_n N_A_c_717_n N_A_c_665_n N_A_c_718_n )  PM_HA\%A
x_PM_HA\%B ( N_B_c_864_n N_B_c_871_n N_B_c_900_n N_B_c_904_n N_B_c_872_n \
 N_B_c_983_n N_B_c_905_n N_B_c_913_n B B B B B B B B B B B B B B B B \
 N_B_c_948_n N_B_c_879_n N_B_c_881_n N_B_c_883_n N_B_M1_noxref_g \
 N_B_M5_noxref_g N_B_M8_noxref_g N_B_M11_noxref_g N_B_M12_noxref_g \
 N_B_M21_noxref_g N_B_M22_noxref_g N_B_M25_noxref_g N_B_M26_noxref_g \
 N_B_c_957_n N_B_c_958_n N_B_c_959_n N_B_c_960_n N_B_c_962_n N_B_c_963_n \
 N_B_c_965_n N_B_c_966_n N_B_c_1010_n N_B_c_1013_n N_B_c_1015_n N_B_c_1018_n \
 N_B_c_1085_p N_B_c_1074_p N_B_c_1020_n N_B_c_1021_n N_B_c_888_n N_B_c_890_n \
 N_B_c_1121_p N_B_c_938_n N_B_c_891_n N_B_c_1132_p N_B_c_939_n N_B_c_892_n \
 N_B_c_1134_p N_B_c_1135_p N_B_c_894_n N_B_c_968_n N_B_c_969_n N_B_c_971_n \
 N_B_c_941_n N_B_c_895_n )  PM_HA\%B
x_PM_HA\%noxref_6 ( N_noxref_6_c_1177_n N_noxref_6_c_1186_n \
 N_noxref_6_c_1189_n N_noxref_6_c_1227_n N_noxref_6_c_1203_n \
 N_noxref_6_c_1206_n N_noxref_6_c_1192_n N_noxref_6_c_1195_n \
 N_noxref_6_M7_noxref_g N_noxref_6_M23_noxref_g N_noxref_6_M24_noxref_g \
 N_noxref_6_c_1297_p N_noxref_6_c_1298_p N_noxref_6_c_1299_p \
 N_noxref_6_c_1281_p N_noxref_6_c_1301_p N_noxref_6_c_1292_p \
 N_noxref_6_c_1303_p N_noxref_6_c_1293_p N_noxref_6_c_1270_n \
 N_noxref_6_M3_noxref_d N_noxref_6_M15_noxref_d )  PM_HA\%noxref_6
x_PM_HA\%SUM ( N_SUM_c_1380_n N_SUM_c_1384_n SUM SUM SUM SUM SUM SUM SUM SUM \
 N_SUM_c_1368_n N_SUM_c_1370_n N_SUM_c_1354_n N_SUM_c_1405_n N_SUM_c_1371_n \
 N_SUM_c_1373_n N_SUM_c_1355_n N_SUM_c_1439_n N_SUM_M5_noxref_d \
 N_SUM_M7_noxref_d N_SUM_M19_noxref_d N_SUM_M23_noxref_d )  PM_HA\%SUM
x_PM_HA\%noxref_8 ( N_noxref_8_c_1525_n N_noxref_8_c_1543_n \
 N_noxref_8_c_1564_n N_noxref_8_c_1567_n N_noxref_8_c_1527_n \
 N_noxref_8_c_1504_n N_noxref_8_c_1505_n N_noxref_8_c_1506_n \
 N_noxref_8_c_1507_n N_noxref_8_c_1530_n N_noxref_8_c_1531_n \
 N_noxref_8_M6_noxref_g N_noxref_8_M19_noxref_g N_noxref_8_M20_noxref_g \
 N_noxref_8_c_1511_n N_noxref_8_c_1513_n N_noxref_8_c_1514_n \
 N_noxref_8_c_1515_n N_noxref_8_c_1516_n N_noxref_8_c_1517_n \
 N_noxref_8_c_1518_n N_noxref_8_c_1520_n N_noxref_8_c_1552_n \
 N_noxref_8_M8_noxref_d N_noxref_8_M25_noxref_d )  PM_HA\%noxref_8
x_PM_HA\%noxref_9 ( N_noxref_9_c_1692_n N_noxref_9_c_1668_n \
 N_noxref_9_c_1672_n N_noxref_9_c_1676_n N_noxref_9_c_1677_n \
 N_noxref_9_c_1680_n N_noxref_9_M0_noxref_s )  PM_HA\%noxref_9
x_PM_HA\%COUT ( COUT COUT COUT COUT COUT N_COUT_c_1724_n N_COUT_c_1750_n \
 N_COUT_c_1735_n N_COUT_c_1738_n N_COUT_M2_noxref_d N_COUT_M13_noxref_d )  \
 PM_HA\%COUT
x_PM_HA\%noxref_11 ( N_noxref_11_c_1778_n N_noxref_11_c_1783_n \
 N_noxref_11_c_1785_n N_noxref_11_c_1786_n N_noxref_11_M17_noxref_s \
 N_noxref_11_M18_noxref_d N_noxref_11_M20_noxref_d )  PM_HA\%noxref_11
x_PM_HA\%noxref_12 ( N_noxref_12_c_1822_n N_noxref_12_c_1823_n \
 N_noxref_12_c_1827_n N_noxref_12_c_1831_n N_noxref_12_c_1832_n \
 N_noxref_12_c_1835_n N_noxref_12_M4_noxref_s )  PM_HA\%noxref_12
x_PM_HA\%noxref_13 ( N_noxref_13_c_1875_n N_noxref_13_c_1880_n \
 N_noxref_13_c_1881_n N_noxref_13_c_1882_n N_noxref_13_M21_noxref_s \
 N_noxref_13_M22_noxref_d N_noxref_13_M24_noxref_d )  PM_HA\%noxref_13
x_PM_HA\%noxref_14 ( N_noxref_14_c_1943_n N_noxref_14_c_1918_n \
 N_noxref_14_c_1922_n N_noxref_14_c_1926_n N_noxref_14_c_1927_n \
 N_noxref_14_c_1930_n N_noxref_14_M6_noxref_s )  PM_HA\%noxref_14
cc_1 ( N_GND_c_1_p N_VDD_c_250_n ) capacitor c=0.00989031f //x=0.74 //y=0 \
 //x2=0.74 //y2=7.4
cc_2 ( N_GND_c_2_p N_VDD_c_251_n ) capacitor c=0.00500587f //x=3.33 //y=0 \
 //x2=3.33 //y2=7.4
cc_3 ( N_GND_c_3_p N_VDD_c_252_n ) capacitor c=0.00524516f //x=5.55 //y=0 \
 //x2=5.55 //y2=7.4
cc_4 ( N_GND_c_4_p N_VDD_c_253_n ) capacitor c=0.0057235f //x=7.77 //y=0 \
 //x2=7.77 //y2=7.4
cc_5 ( N_GND_c_5_p N_VDD_c_254_n ) capacitor c=0.0057235f //x=11.1 //y=0 \
 //x2=11.1 //y2=7.4
cc_6 ( N_GND_c_6_p N_VDD_c_255_n ) capacitor c=0.00478842f //x=14.43 //y=0 \
 //x2=14.43 //y2=7.4
cc_7 ( N_GND_c_7_p N_VDD_c_256_n ) capacitor c=0.00989031f //x=16.02 //y=0 \
 //x2=15.91 //y2=7.4
cc_8 ( N_GND_c_8_p N_noxref_3_c_488_n ) capacitor c=0.0116104f //x=15.91 //y=0 \
 //x2=3.955 //y2=3.33
cc_9 ( N_GND_c_9_p N_noxref_3_c_488_n ) capacitor c=0.00157139f //x=3.16 //y=0 \
 //x2=3.955 //y2=3.33
cc_10 ( N_GND_c_10_p N_noxref_3_c_488_n ) capacitor c=0.00110325f //x=3.875 \
 //y=0 //x2=3.955 //y2=3.33
cc_11 ( N_GND_c_11_p N_noxref_3_c_488_n ) capacitor c=3.56654e-19 //x=4.36 \
 //y=0.535 //x2=3.955 //y2=3.33
cc_12 ( N_GND_c_2_p N_noxref_3_c_488_n ) capacitor c=0.00820844f //x=3.33 \
 //y=0 //x2=3.955 //y2=3.33
cc_13 ( N_GND_M2_noxref_s N_noxref_3_c_488_n ) capacitor c=0.00175408f \
 //x=3.825 //y=0.37 //x2=3.955 //y2=3.33
cc_14 ( N_GND_c_8_p N_noxref_3_c_494_n ) capacitor c=0.00174211f //x=15.91 \
 //y=0 //x2=2.705 //y2=3.33
cc_15 ( N_GND_c_2_p N_noxref_3_c_495_n ) capacitor c=0.0461206f //x=3.33 //y=0 \
 //x2=2.505 //y2=1.655
cc_16 ( N_GND_M2_noxref_s N_noxref_3_c_495_n ) capacitor c=3.37896e-19 \
 //x=3.825 //y=0.37 //x2=2.505 //y2=1.655
cc_17 ( N_GND_c_1_p N_noxref_3_c_497_n ) capacitor c=0.00101801f //x=0.74 \
 //y=0 //x2=2.59 //y2=3.33
cc_18 ( N_GND_c_8_p N_noxref_3_c_498_n ) capacitor c=0.00184963f //x=15.91 \
 //y=0 //x2=4.07 //y2=2.085
cc_19 ( N_GND_c_11_p N_noxref_3_c_498_n ) capacitor c=7.87839e-19 //x=4.36 \
 //y=0.535 //x2=4.07 //y2=2.085
cc_20 ( N_GND_c_2_p N_noxref_3_c_498_n ) capacitor c=0.029021f //x=3.33 //y=0 \
 //x2=4.07 //y2=2.085
cc_21 ( N_GND_c_3_p N_noxref_3_c_498_n ) capacitor c=0.0014623f //x=5.55 //y=0 \
 //x2=4.07 //y2=2.085
cc_22 ( N_GND_M2_noxref_s N_noxref_3_c_498_n ) capacitor c=0.0103841f \
 //x=3.825 //y=0.37 //x2=4.07 //y2=2.085
cc_23 ( N_GND_c_11_p N_noxref_3_c_503_n ) capacitor c=0.0123171f //x=4.36 \
 //y=0.535 //x2=4.18 //y2=0.91
cc_24 ( N_GND_M2_noxref_s N_noxref_3_c_503_n ) capacitor c=0.0317689f \
 //x=3.825 //y=0.37 //x2=4.18 //y2=0.91
cc_25 ( N_GND_c_2_p N_noxref_3_c_505_n ) capacitor c=0.00562003f //x=3.33 \
 //y=0 //x2=4.18 //y2=1.92
cc_26 ( N_GND_M2_noxref_s N_noxref_3_c_506_n ) capacitor c=0.00489f //x=3.825 \
 //y=0.37 //x2=4.555 //y2=0.755
cc_27 ( N_GND_c_27_p N_noxref_3_c_507_n ) capacitor c=0.0119174f //x=4.845 \
 //y=0.535 //x2=4.71 //y2=0.91
cc_28 ( N_GND_M2_noxref_s N_noxref_3_c_507_n ) capacitor c=0.0143355f \
 //x=3.825 //y=0.37 //x2=4.71 //y2=0.91
cc_29 ( N_GND_M2_noxref_s N_noxref_3_c_509_n ) capacitor c=0.0074042f \
 //x=3.825 //y=0.37 //x2=4.71 //y2=1.255
cc_30 ( N_GND_c_11_p N_noxref_3_c_510_n ) capacitor c=2.1838e-19 //x=4.36 \
 //y=0.535 //x2=4.07 //y2=2.085
cc_31 ( N_GND_c_2_p N_noxref_3_c_510_n ) capacitor c=0.0108179f //x=3.33 //y=0 \
 //x2=4.07 //y2=2.085
cc_32 ( N_GND_M2_noxref_s N_noxref_3_c_510_n ) capacitor c=0.00655738f \
 //x=3.825 //y=0.37 //x2=4.07 //y2=2.085
cc_33 ( N_GND_c_1_p N_noxref_3_M1_noxref_d ) capacitor c=8.58106e-19 //x=0.74 \
 //y=0 //x2=1.96 //y2=0.905
cc_34 ( N_GND_c_2_p N_noxref_3_M1_noxref_d ) capacitor c=0.00616547f //x=3.33 \
 //y=0 //x2=1.96 //y2=0.905
cc_35 ( N_GND_M0_noxref_d N_noxref_3_M1_noxref_d ) capacitor c=0.00143464f \
 //x=0.99 //y=0.865 //x2=1.96 //y2=0.905
cc_36 ( N_GND_M2_noxref_s N_noxref_3_M1_noxref_d ) capacitor c=2.09402e-19 \
 //x=3.825 //y=0.37 //x2=1.96 //y2=0.905
cc_37 ( N_GND_c_8_p N_A_c_630_n ) capacitor c=0.0112065f //x=15.91 //y=0 \
 //x2=6.175 //y2=4.07
cc_38 ( N_GND_c_8_p N_A_c_631_n ) capacitor c=0.00158913f //x=15.91 //y=0 \
 //x2=1.225 //y2=4.07
cc_39 ( N_GND_c_1_p N_A_c_632_n ) capacitor c=0.0180518f //x=0.74 //y=0 \
 //x2=1.11 //y2=2.08
cc_40 ( N_GND_c_8_p N_A_c_633_n ) capacitor c=0.00186167f //x=15.91 //y=0 \
 //x2=6.29 //y2=2.085
cc_41 ( N_GND_c_41_p N_A_c_633_n ) capacitor c=7.89949e-19 //x=6.58 //y=0.535 \
 //x2=6.29 //y2=2.085
cc_42 ( N_GND_c_3_p N_A_c_633_n ) capacitor c=0.0284109f //x=5.55 //y=0 \
 //x2=6.29 //y2=2.085
cc_43 ( N_GND_c_4_p N_A_c_633_n ) capacitor c=0.00133655f //x=7.77 //y=0 \
 //x2=6.29 //y2=2.085
cc_44 ( N_GND_M3_noxref_s N_A_c_633_n ) capacitor c=0.0110366f //x=6.045 \
 //y=0.37 //x2=6.29 //y2=2.085
cc_45 ( N_GND_c_4_p N_A_c_638_n ) capacitor c=0.0151398f //x=7.77 //y=0 \
 //x2=8.88 //y2=2.085
cc_46 ( N_GND_c_46_p N_A_c_639_n ) capacitor c=0.00135046f //x=1.095 //y=0 \
 //x2=0.915 //y2=0.865
cc_47 ( N_GND_M0_noxref_d N_A_c_639_n ) capacitor c=0.00220047f //x=0.99 \
 //y=0.865 //x2=0.915 //y2=0.865
cc_48 ( N_GND_M0_noxref_d N_A_c_641_n ) capacitor c=0.00255985f //x=0.99 \
 //y=0.865 //x2=0.915 //y2=1.21
cc_49 ( N_GND_c_1_p N_A_c_642_n ) capacitor c=0.00264481f //x=0.74 //y=0 \
 //x2=0.915 //y2=1.52
cc_50 ( N_GND_c_1_p N_A_c_643_n ) capacitor c=0.0121947f //x=0.74 //y=0 \
 //x2=0.915 //y2=1.915
cc_51 ( N_GND_M0_noxref_d N_A_c_644_n ) capacitor c=0.0131326f //x=0.99 \
 //y=0.865 //x2=1.29 //y2=0.71
cc_52 ( N_GND_M0_noxref_d N_A_c_645_n ) capacitor c=0.00193127f //x=0.99 \
 //y=0.865 //x2=1.29 //y2=1.365
cc_53 ( N_GND_c_9_p N_A_c_646_n ) capacitor c=0.00130622f //x=3.16 //y=0 \
 //x2=1.445 //y2=0.865
cc_54 ( N_GND_M0_noxref_d N_A_c_646_n ) capacitor c=0.00257848f //x=0.99 \
 //y=0.865 //x2=1.445 //y2=0.865
cc_55 ( N_GND_M0_noxref_d N_A_c_648_n ) capacitor c=0.00255985f //x=0.99 \
 //y=0.865 //x2=1.445 //y2=1.21
cc_56 ( N_GND_c_41_p N_A_c_649_n ) capacitor c=0.0123171f //x=6.58 //y=0.535 \
 //x2=6.4 //y2=0.91
cc_57 ( N_GND_M3_noxref_s N_A_c_649_n ) capacitor c=0.0316686f //x=6.045 \
 //y=0.37 //x2=6.4 //y2=0.91
cc_58 ( N_GND_c_3_p N_A_c_651_n ) capacitor c=0.0038551f //x=5.55 //y=0 \
 //x2=6.4 //y2=1.92
cc_59 ( N_GND_M3_noxref_s N_A_c_652_n ) capacitor c=0.00489f //x=6.045 \
 //y=0.37 //x2=6.775 //y2=0.755
cc_60 ( N_GND_c_60_p N_A_c_653_n ) capacitor c=0.0119174f //x=7.065 //y=0.535 \
 //x2=6.93 //y2=0.91
cc_61 ( N_GND_M3_noxref_s N_A_c_653_n ) capacitor c=0.0143355f //x=6.045 \
 //y=0.37 //x2=6.93 //y2=0.91
cc_62 ( N_GND_M3_noxref_s N_A_c_655_n ) capacitor c=0.0074042f //x=6.045 \
 //y=0.37 //x2=6.93 //y2=1.255
cc_63 ( N_GND_c_63_p N_A_c_656_n ) capacitor c=0.00134217f //x=8.865 //y=0 \
 //x2=8.685 //y2=0.87
cc_64 ( N_GND_M4_noxref_d N_A_c_656_n ) capacitor c=0.00220047f //x=8.76 \
 //y=0.87 //x2=8.685 //y2=0.87
cc_65 ( N_GND_M4_noxref_d N_A_c_658_n ) capacitor c=0.00255985f //x=8.76 \
 //y=0.87 //x2=8.685 //y2=1.215
cc_66 ( N_GND_c_4_p N_A_c_659_n ) capacitor c=0.0114882f //x=7.77 //y=0 \
 //x2=8.685 //y2=1.92
cc_67 ( N_GND_M4_noxref_d N_A_c_660_n ) capacitor c=0.013135f //x=8.76 \
 //y=0.87 //x2=9.06 //y2=0.715
cc_68 ( N_GND_M4_noxref_d N_A_c_661_n ) capacitor c=0.00193136f //x=8.76 \
 //y=0.87 //x2=9.06 //y2=1.37
cc_69 ( N_GND_c_69_p N_A_c_662_n ) capacitor c=0.00129817f //x=10.93 //y=0 \
 //x2=9.215 //y2=0.87
cc_70 ( N_GND_M4_noxref_d N_A_c_662_n ) capacitor c=0.00257848f //x=8.76 \
 //y=0.87 //x2=9.215 //y2=0.87
cc_71 ( N_GND_M4_noxref_d N_A_c_664_n ) capacitor c=0.00255985f //x=8.76 \
 //y=0.87 //x2=9.215 //y2=1.215
cc_72 ( N_GND_c_41_p N_A_c_665_n ) capacitor c=2.1838e-19 //x=6.58 //y=0.535 \
 //x2=6.29 //y2=2.085
cc_73 ( N_GND_c_3_p N_A_c_665_n ) capacitor c=0.0108179f //x=5.55 //y=0 \
 //x2=6.29 //y2=2.085
cc_74 ( N_GND_M3_noxref_s N_A_c_665_n ) capacitor c=0.00655738f //x=6.045 \
 //y=0.37 //x2=6.29 //y2=2.085
cc_75 ( N_GND_c_8_p N_B_c_864_n ) capacitor c=0.0275553f //x=15.91 //y=0 \
 //x2=9.505 //y2=3.7
cc_76 ( N_GND_c_11_p N_B_c_864_n ) capacitor c=6.49174e-19 //x=4.36 //y=0.535 \
 //x2=9.505 //y2=3.7
cc_77 ( N_GND_c_41_p N_B_c_864_n ) capacitor c=8.7158e-19 //x=6.58 //y=0.535 \
 //x2=9.505 //y2=3.7
cc_78 ( N_GND_c_3_p N_B_c_864_n ) capacitor c=0.00533016f //x=5.55 //y=0 \
 //x2=9.505 //y2=3.7
cc_79 ( N_GND_c_4_p N_B_c_864_n ) capacitor c=0.0034979f //x=7.77 //y=0 \
 //x2=9.505 //y2=3.7
cc_80 ( N_GND_M2_noxref_s N_B_c_864_n ) capacitor c=0.00141726f //x=3.825 \
 //y=0.37 //x2=9.505 //y2=3.7
cc_81 ( N_GND_M3_noxref_s N_B_c_864_n ) capacitor c=0.00133209f //x=6.045 \
 //y=0.37 //x2=9.505 //y2=3.7
cc_82 ( N_GND_c_8_p N_B_c_871_n ) capacitor c=0.00157091f //x=15.91 //y=0 \
 //x2=1.965 //y2=3.7
cc_83 ( N_GND_c_8_p N_B_c_872_n ) capacitor c=0.0344763f //x=15.91 //y=0 \
 //x2=15.795 //y2=2.96
cc_84 ( N_GND_c_84_p N_B_c_872_n ) capacitor c=0.00209087f //x=14.26 //y=0 \
 //x2=15.795 //y2=2.96
cc_85 ( N_GND_c_85_p N_B_c_872_n ) capacitor c=0.00129597f //x=14.965 //y=0 \
 //x2=15.795 //y2=2.96
cc_86 ( N_GND_c_86_p N_B_c_872_n ) capacitor c=0.00114872f //x=15.45 //y=0.535 \
 //x2=15.795 //y2=2.96
cc_87 ( N_GND_c_5_p N_B_c_872_n ) capacitor c=0.00750857f //x=11.1 //y=0 \
 //x2=15.795 //y2=2.96
cc_88 ( N_GND_c_6_p N_B_c_872_n ) capacitor c=0.0144849f //x=14.43 //y=0 \
 //x2=15.795 //y2=2.96
cc_89 ( N_GND_M8_noxref_s N_B_c_872_n ) capacitor c=0.00405051f //x=14.925 \
 //y=0.37 //x2=15.795 //y2=2.96
cc_90 ( N_GND_c_1_p N_B_c_879_n ) capacitor c=9.2064e-19 //x=0.74 //y=0 \
 //x2=1.85 //y2=2.08
cc_91 ( N_GND_c_2_p N_B_c_879_n ) capacitor c=9.53263e-19 //x=3.33 //y=0 \
 //x2=1.85 //y2=2.08
cc_92 ( N_GND_c_4_p N_B_c_881_n ) capacitor c=6.9974e-19 //x=7.77 //y=0 \
 //x2=9.99 //y2=2.085
cc_93 ( N_GND_c_5_p N_B_c_881_n ) capacitor c=0.00164431f //x=11.1 //y=0 \
 //x2=9.99 //y2=2.085
cc_94 ( N_GND_c_8_p N_B_c_883_n ) capacitor c=0.00183756f //x=15.91 //y=0 \
 //x2=15.91 //y2=2.085
cc_95 ( N_GND_c_95_p N_B_c_883_n ) capacitor c=7.8474e-19 //x=15.935 //y=0.535 \
 //x2=15.91 //y2=2.085
cc_96 ( N_GND_c_6_p N_B_c_883_n ) capacitor c=0.00146529f //x=14.43 //y=0 \
 //x2=15.91 //y2=2.085
cc_97 ( N_GND_c_7_p N_B_c_883_n ) capacitor c=0.0290276f //x=16.02 //y=0 \
 //x2=15.91 //y2=2.085
cc_98 ( N_GND_M8_noxref_s N_B_c_883_n ) capacitor c=0.0102424f //x=14.925 \
 //y=0.37 //x2=15.91 //y2=2.085
cc_99 ( N_GND_c_86_p N_B_c_888_n ) capacitor c=0.0119174f //x=15.45 //y=0.535 \
 //x2=15.27 //y2=0.91
cc_100 ( N_GND_M8_noxref_s N_B_c_888_n ) capacitor c=0.0143355f //x=14.925 \
 //y=0.37 //x2=15.27 //y2=0.91
cc_101 ( N_GND_M8_noxref_s N_B_c_890_n ) capacitor c=0.0074042f //x=14.925 \
 //y=0.37 //x2=15.27 //y2=1.255
cc_102 ( N_GND_M8_noxref_s N_B_c_891_n ) capacitor c=0.00489f //x=14.925 \
 //y=0.37 //x2=15.645 //y2=0.755
cc_103 ( N_GND_c_95_p N_B_c_892_n ) capacitor c=0.0123171f //x=15.935 \
 //y=0.535 //x2=15.8 //y2=0.91
cc_104 ( N_GND_M8_noxref_s N_B_c_892_n ) capacitor c=0.0317181f //x=14.925 \
 //y=0.37 //x2=15.8 //y2=0.91
cc_105 ( N_GND_c_7_p N_B_c_894_n ) capacitor c=0.0124051f //x=16.02 //y=0 \
 //x2=15.8 //y2=1.92
cc_106 ( N_GND_c_95_p N_B_c_895_n ) capacitor c=2.1838e-19 //x=15.935 \
 //y=0.535 //x2=15.8 //y2=2.085
cc_107 ( N_GND_c_7_p N_B_c_895_n ) capacitor c=0.0108179f //x=16.02 //y=0 \
 //x2=15.8 //y2=2.085
cc_108 ( N_GND_M8_noxref_s N_B_c_895_n ) capacitor c=0.00652836f //x=14.925 \
 //y=0.37 //x2=15.8 //y2=2.085
cc_109 ( N_GND_c_8_p N_noxref_6_c_1177_n ) capacitor c=0.0533505f //x=15.91 \
 //y=0 //x2=13.205 //y2=2.59
cc_110 ( N_GND_c_110_p N_noxref_6_c_1177_n ) capacitor c=0.0015622f //x=7.6 \
 //y=0 //x2=13.205 //y2=2.59
cc_111 ( N_GND_c_63_p N_noxref_6_c_1177_n ) capacitor c=0.00281115f //x=8.865 \
 //y=0 //x2=13.205 //y2=2.59
cc_112 ( N_GND_c_69_p N_noxref_6_c_1177_n ) capacitor c=0.00343545f //x=10.93 \
 //y=0 //x2=13.205 //y2=2.59
cc_113 ( N_GND_c_113_p N_noxref_6_c_1177_n ) capacitor c=0.00281115f \
 //x=12.195 //y=0 //x2=13.205 //y2=2.59
cc_114 ( N_GND_c_84_p N_noxref_6_c_1177_n ) capacitor c=9.27524e-19 //x=14.26 \
 //y=0 //x2=13.205 //y2=2.59
cc_115 ( N_GND_c_4_p N_noxref_6_c_1177_n ) capacitor c=0.0377057f //x=7.77 \
 //y=0 //x2=13.205 //y2=2.59
cc_116 ( N_GND_c_5_p N_noxref_6_c_1177_n ) capacitor c=0.0338055f //x=11.1 \
 //y=0 //x2=13.205 //y2=2.59
cc_117 ( N_GND_M3_noxref_s N_noxref_6_c_1177_n ) capacitor c=0.00248261f \
 //x=6.045 //y=0.37 //x2=13.205 //y2=2.59
cc_118 ( N_GND_c_8_p N_noxref_6_c_1186_n ) capacitor c=0.00231366f //x=15.91 \
 //y=0 //x2=7.145 //y2=2.59
cc_119 ( N_GND_c_4_p N_noxref_6_c_1186_n ) capacitor c=0.00209945f //x=7.77 \
 //y=0 //x2=7.145 //y2=2.59
cc_120 ( N_GND_M3_noxref_s N_noxref_6_c_1186_n ) capacitor c=0.00120637f \
 //x=6.045 //y=0.37 //x2=7.145 //y2=2.59
cc_121 ( N_GND_c_8_p N_noxref_6_c_1189_n ) capacitor c=0.00129221f //x=15.91 \
 //y=0 //x2=6.945 //y2=2.08
cc_122 ( N_GND_c_4_p N_noxref_6_c_1189_n ) capacitor c=0.0263587f //x=7.77 \
 //y=0 //x2=6.945 //y2=2.08
cc_123 ( N_GND_M3_noxref_s N_noxref_6_c_1189_n ) capacitor c=0.00948834f \
 //x=6.045 //y=0.37 //x2=6.945 //y2=2.08
cc_124 ( N_GND_c_3_p N_noxref_6_c_1192_n ) capacitor c=9.71e-19 //x=5.55 //y=0 \
 //x2=7.03 //y2=2.59
cc_125 ( N_GND_c_4_p N_noxref_6_c_1192_n ) capacitor c=5.56859e-19 //x=7.77 \
 //y=0 //x2=7.03 //y2=2.59
cc_126 ( N_GND_M3_noxref_s N_noxref_6_c_1192_n ) capacitor c=2.30929e-19 \
 //x=6.045 //y=0.37 //x2=7.03 //y2=2.59
cc_127 ( N_GND_c_5_p N_noxref_6_c_1195_n ) capacitor c=6.8921e-19 //x=11.1 \
 //y=0 //x2=13.32 //y2=2.085
cc_128 ( N_GND_c_6_p N_noxref_6_c_1195_n ) capacitor c=0.00183906f //x=14.43 \
 //y=0 //x2=13.32 //y2=2.085
cc_129 ( N_GND_c_8_p N_noxref_6_M3_noxref_d ) capacitor c=0.00132558f \
 //x=15.91 //y=0 //x2=6.475 //y2=0.91
cc_130 ( N_GND_c_41_p N_noxref_6_M3_noxref_d ) capacitor c=0.0151225f //x=6.58 \
 //y=0.535 //x2=6.475 //y2=0.91
cc_131 ( N_GND_c_3_p N_noxref_6_M3_noxref_d ) capacitor c=0.00924905f //x=5.55 \
 //y=0 //x2=6.475 //y2=0.91
cc_132 ( N_GND_c_4_p N_noxref_6_M3_noxref_d ) capacitor c=0.00949341f //x=7.77 \
 //y=0 //x2=6.475 //y2=0.91
cc_133 ( N_GND_c_7_p N_noxref_6_M3_noxref_d ) capacitor c=2.29264e-19 \
 //x=16.02 //y=0 //x2=6.475 //y2=0.91
cc_134 ( N_GND_M3_noxref_s N_noxref_6_M3_noxref_d ) capacitor c=0.076995f \
 //x=6.045 //y=0.37 //x2=6.475 //y2=0.91
cc_135 ( N_GND_c_4_p SUM ) capacitor c=0.00105873f //x=7.77 //y=0 //x2=10.36 \
 //y2=2.22
cc_136 ( N_GND_c_5_p SUM ) capacitor c=0.00100332f //x=11.1 //y=0 //x2=13.69 \
 //y2=2.22
cc_137 ( N_GND_c_5_p N_SUM_c_1354_n ) capacitor c=0.0428968f //x=11.1 //y=0 \
 //x2=10.275 //y2=1.655
cc_138 ( N_GND_c_6_p N_SUM_c_1355_n ) capacitor c=0.0446773f //x=14.43 //y=0 \
 //x2=13.605 //y2=1.655
cc_139 ( N_GND_M8_noxref_s N_SUM_c_1355_n ) capacitor c=3.42693e-19 //x=14.925 \
 //y=0.37 //x2=13.605 //y2=1.655
cc_140 ( N_GND_c_4_p N_SUM_M5_noxref_d ) capacitor c=8.60262e-19 //x=7.77 \
 //y=0 //x2=9.73 //y2=0.91
cc_141 ( N_GND_c_5_p N_SUM_M5_noxref_d ) capacitor c=0.00605305f //x=11.1 \
 //y=0 //x2=9.73 //y2=0.91
cc_142 ( N_GND_M4_noxref_d N_SUM_M5_noxref_d ) capacitor c=0.00143464f \
 //x=8.76 //y=0.87 //x2=9.73 //y2=0.91
cc_143 ( N_GND_c_5_p N_SUM_M7_noxref_d ) capacitor c=8.60262e-19 //x=11.1 \
 //y=0 //x2=13.06 //y2=0.91
cc_144 ( N_GND_c_6_p N_SUM_M7_noxref_d ) capacitor c=0.00605305f //x=14.43 \
 //y=0 //x2=13.06 //y2=0.91
cc_145 ( N_GND_M6_noxref_d N_SUM_M7_noxref_d ) capacitor c=0.00143464f \
 //x=12.09 //y=0.87 //x2=13.06 //y2=0.91
cc_146 ( N_GND_M8_noxref_s N_SUM_M7_noxref_d ) capacitor c=2.07711e-19 \
 //x=14.925 //y=0.37 //x2=13.06 //y2=0.91
cc_147 ( N_GND_c_5_p N_noxref_8_c_1504_n ) capacitor c=0.0151475f //x=11.1 \
 //y=0 //x2=12.21 //y2=2.085
cc_148 ( N_GND_c_7_p N_noxref_8_c_1505_n ) capacitor c=0.00114558f //x=16.02 \
 //y=0 //x2=15.17 //y2=3.33
cc_149 ( N_GND_M8_noxref_s N_noxref_8_c_1506_n ) capacitor c=0.00178356f \
 //x=14.925 //y=0.37 //x2=15.455 //y2=2.08
cc_150 ( N_GND_c_8_p N_noxref_8_c_1507_n ) capacitor c=0.00128495f //x=15.91 \
 //y=0 //x2=15.255 //y2=2.08
cc_151 ( N_GND_c_86_p N_noxref_8_c_1507_n ) capacitor c=0.00178356f //x=15.45 \
 //y=0.535 //x2=15.255 //y2=2.08
cc_152 ( N_GND_c_6_p N_noxref_8_c_1507_n ) capacitor c=0.0291959f //x=14.43 \
 //y=0 //x2=15.255 //y2=2.08
cc_153 ( N_GND_M8_noxref_s N_noxref_8_c_1507_n ) capacitor c=0.00610757f \
 //x=14.925 //y=0.37 //x2=15.255 //y2=2.08
cc_154 ( N_GND_c_113_p N_noxref_8_c_1511_n ) capacitor c=0.00134217f \
 //x=12.195 //y=0 //x2=12.015 //y2=0.87
cc_155 ( N_GND_M6_noxref_d N_noxref_8_c_1511_n ) capacitor c=0.00220047f \
 //x=12.09 //y=0.87 //x2=12.015 //y2=0.87
cc_156 ( N_GND_M6_noxref_d N_noxref_8_c_1513_n ) capacitor c=0.00255985f \
 //x=12.09 //y=0.87 //x2=12.015 //y2=1.215
cc_157 ( N_GND_c_5_p N_noxref_8_c_1514_n ) capacitor c=0.00176175f //x=11.1 \
 //y=0 //x2=12.015 //y2=1.525
cc_158 ( N_GND_c_5_p N_noxref_8_c_1515_n ) capacitor c=0.0114882f //x=11.1 \
 //y=0 //x2=12.015 //y2=1.92
cc_159 ( N_GND_M6_noxref_d N_noxref_8_c_1516_n ) capacitor c=0.013135f \
 //x=12.09 //y=0.87 //x2=12.39 //y2=0.715
cc_160 ( N_GND_M6_noxref_d N_noxref_8_c_1517_n ) capacitor c=0.00193136f \
 //x=12.09 //y=0.87 //x2=12.39 //y2=1.37
cc_161 ( N_GND_c_84_p N_noxref_8_c_1518_n ) capacitor c=0.00129817f //x=14.26 \
 //y=0 //x2=12.545 //y2=0.87
cc_162 ( N_GND_M6_noxref_d N_noxref_8_c_1518_n ) capacitor c=0.00257848f \
 //x=12.09 //y=0.87 //x2=12.545 //y2=0.87
cc_163 ( N_GND_M6_noxref_d N_noxref_8_c_1520_n ) capacitor c=0.00255985f \
 //x=12.09 //y=0.87 //x2=12.545 //y2=1.215
cc_164 ( N_GND_c_8_p N_noxref_8_M8_noxref_d ) capacitor c=0.00124113f \
 //x=15.91 //y=0 //x2=15.345 //y2=0.91
cc_165 ( N_GND_c_6_p N_noxref_8_M8_noxref_d ) capacitor c=0.00945919f \
 //x=14.43 //y=0 //x2=15.345 //y2=0.91
cc_166 ( N_GND_c_7_p N_noxref_8_M8_noxref_d ) capacitor c=0.00966656f \
 //x=16.02 //y=0 //x2=15.345 //y2=0.91
cc_167 ( N_GND_M8_noxref_s N_noxref_8_M8_noxref_d ) capacitor c=0.0920431f \
 //x=14.925 //y=0.37 //x2=15.345 //y2=0.91
cc_168 ( N_GND_c_8_p N_noxref_9_c_1668_n ) capacitor c=0.00600255f //x=15.91 \
 //y=0 //x2=1.58 //y2=1.58
cc_169 ( N_GND_c_46_p N_noxref_9_c_1668_n ) capacitor c=0.00111428f //x=1.095 \
 //y=0 //x2=1.58 //y2=1.58
cc_170 ( N_GND_c_9_p N_noxref_9_c_1668_n ) capacitor c=0.00180846f //x=3.16 \
 //y=0 //x2=1.58 //y2=1.58
cc_171 ( N_GND_M0_noxref_d N_noxref_9_c_1668_n ) capacitor c=0.00904549f \
 //x=0.99 //y=0.865 //x2=1.58 //y2=1.58
cc_172 ( N_GND_c_8_p N_noxref_9_c_1672_n ) capacitor c=0.0050999f //x=15.91 \
 //y=0 //x2=1.665 //y2=0.615
cc_173 ( N_GND_c_9_p N_noxref_9_c_1672_n ) capacitor c=0.0146208f //x=3.16 \
 //y=0 //x2=1.665 //y2=0.615
cc_174 ( N_GND_c_7_p N_noxref_9_c_1672_n ) capacitor c=0.00145873f //x=16.02 \
 //y=0 //x2=1.665 //y2=0.615
cc_175 ( N_GND_M0_noxref_d N_noxref_9_c_1672_n ) capacitor c=0.033812f \
 //x=0.99 //y=0.865 //x2=1.665 //y2=0.615
cc_176 ( N_GND_c_1_p N_noxref_9_c_1676_n ) capacitor c=2.91423e-19 //x=0.74 \
 //y=0 //x2=1.665 //y2=1.495
cc_177 ( N_GND_c_8_p N_noxref_9_c_1677_n ) capacitor c=0.0123615f //x=15.91 \
 //y=0 //x2=2.55 //y2=0.53
cc_178 ( N_GND_c_9_p N_noxref_9_c_1677_n ) capacitor c=0.0373121f //x=3.16 \
 //y=0 //x2=2.55 //y2=0.53
cc_179 ( N_GND_c_7_p N_noxref_9_c_1677_n ) capacitor c=0.0019969f //x=16.02 \
 //y=0 //x2=2.55 //y2=0.53
cc_180 ( N_GND_c_8_p N_noxref_9_c_1680_n ) capacitor c=0.00292576f //x=15.91 \
 //y=0 //x2=2.635 //y2=0.615
cc_181 ( N_GND_c_9_p N_noxref_9_c_1680_n ) capacitor c=0.0148673f //x=3.16 \
 //y=0 //x2=2.635 //y2=0.615
cc_182 ( N_GND_c_182_p N_noxref_9_c_1680_n ) capacitor c=9.77746e-19 //x=3.96 \
 //y=0.45 //x2=2.635 //y2=0.615
cc_183 ( N_GND_c_2_p N_noxref_9_c_1680_n ) capacitor c=0.0431718f //x=3.33 \
 //y=0 //x2=2.635 //y2=0.615
cc_184 ( N_GND_c_7_p N_noxref_9_c_1680_n ) capacitor c=0.00145015f //x=16.02 \
 //y=0 //x2=2.635 //y2=0.615
cc_185 ( N_GND_c_8_p N_noxref_9_M0_noxref_s ) capacitor c=0.00723598f \
 //x=15.91 //y=0 //x2=0.56 //y2=0.365
cc_186 ( N_GND_c_46_p N_noxref_9_M0_noxref_s ) capacitor c=0.0146208f \
 //x=1.095 //y=0 //x2=0.56 //y2=0.365
cc_187 ( N_GND_c_1_p N_noxref_9_M0_noxref_s ) capacitor c=0.0594057f //x=0.74 \
 //y=0 //x2=0.56 //y2=0.365
cc_188 ( N_GND_c_2_p N_noxref_9_M0_noxref_s ) capacitor c=0.00198098f //x=3.33 \
 //y=0 //x2=0.56 //y2=0.365
cc_189 ( N_GND_c_7_p N_noxref_9_M0_noxref_s ) capacitor c=0.00145873f \
 //x=16.02 //y=0 //x2=0.56 //y2=0.365
cc_190 ( N_GND_M0_noxref_d N_noxref_9_M0_noxref_s ) capacitor c=0.0334197f \
 //x=0.99 //y=0.865 //x2=0.56 //y2=0.365
cc_191 ( N_GND_M2_noxref_s N_noxref_9_M0_noxref_s ) capacitor c=9.77746e-19 \
 //x=3.825 //y=0.37 //x2=0.56 //y2=0.365
cc_192 ( N_GND_c_2_p COUT ) capacitor c=8.10282e-19 //x=3.33 //y=0 //x2=4.81 \
 //y2=2.22
cc_193 ( N_GND_c_8_p N_COUT_c_1724_n ) capacitor c=0.00134271f //x=15.91 //y=0 \
 //x2=4.725 //y2=2.08
cc_194 ( N_GND_c_3_p N_COUT_c_1724_n ) capacitor c=0.0293708f //x=5.55 //y=0 \
 //x2=4.725 //y2=2.08
cc_195 ( N_GND_M2_noxref_s N_COUT_c_1724_n ) capacitor c=0.00988433f //x=3.825 \
 //y=0.37 //x2=4.725 //y2=2.08
cc_196 ( N_GND_c_8_p N_COUT_M2_noxref_d ) capacitor c=0.00132558f //x=15.91 \
 //y=0 //x2=4.255 //y2=0.91
cc_197 ( N_GND_c_11_p N_COUT_M2_noxref_d ) capacitor c=0.0151225f //x=4.36 \
 //y=0.535 //x2=4.255 //y2=0.91
cc_198 ( N_GND_c_2_p N_COUT_M2_noxref_d ) capacitor c=0.00924905f //x=3.33 \
 //y=0 //x2=4.255 //y2=0.91
cc_199 ( N_GND_c_3_p N_COUT_M2_noxref_d ) capacitor c=0.00945919f //x=5.55 \
 //y=0 //x2=4.255 //y2=0.91
cc_200 ( N_GND_c_7_p N_COUT_M2_noxref_d ) capacitor c=2.29264e-19 //x=16.02 \
 //y=0 //x2=4.255 //y2=0.91
cc_201 ( N_GND_M2_noxref_s N_COUT_M2_noxref_d ) capacitor c=0.076995f \
 //x=3.825 //y=0.37 //x2=4.255 //y2=0.91
cc_202 ( N_GND_M3_noxref_s N_noxref_12_c_1822_n ) capacitor c=0.0013253f \
 //x=6.045 //y=0.37 //x2=8.465 //y2=1.5
cc_203 ( N_GND_c_8_p N_noxref_12_c_1823_n ) capacitor c=0.00529166f //x=15.91 \
 //y=0 //x2=9.35 //y2=1.585
cc_204 ( N_GND_c_63_p N_noxref_12_c_1823_n ) capacitor c=0.00112205f //x=8.865 \
 //y=0 //x2=9.35 //y2=1.585
cc_205 ( N_GND_c_69_p N_noxref_12_c_1823_n ) capacitor c=0.00181496f //x=10.93 \
 //y=0 //x2=9.35 //y2=1.585
cc_206 ( N_GND_M4_noxref_d N_noxref_12_c_1823_n ) capacitor c=0.00879196f \
 //x=8.76 //y=0.87 //x2=9.35 //y2=1.585
cc_207 ( N_GND_c_8_p N_noxref_12_c_1827_n ) capacitor c=0.0026904f //x=15.91 \
 //y=0 //x2=9.435 //y2=0.62
cc_208 ( N_GND_c_69_p N_noxref_12_c_1827_n ) capacitor c=0.0144735f //x=10.93 \
 //y=0 //x2=9.435 //y2=0.62
cc_209 ( N_GND_c_7_p N_noxref_12_c_1827_n ) capacitor c=0.00141889f //x=16.02 \
 //y=0 //x2=9.435 //y2=0.62
cc_210 ( N_GND_M4_noxref_d N_noxref_12_c_1827_n ) capacitor c=0.033812f \
 //x=8.76 //y=0.87 //x2=9.435 //y2=0.62
cc_211 ( N_GND_c_4_p N_noxref_12_c_1831_n ) capacitor c=2.91423e-19 //x=7.77 \
 //y=0 //x2=9.435 //y2=1.5
cc_212 ( N_GND_c_8_p N_noxref_12_c_1832_n ) capacitor c=0.0111125f //x=15.91 \
 //y=0 //x2=10.32 //y2=0.535
cc_213 ( N_GND_c_69_p N_noxref_12_c_1832_n ) capacitor c=0.0370011f //x=10.93 \
 //y=0 //x2=10.32 //y2=0.535
cc_214 ( N_GND_c_7_p N_noxref_12_c_1832_n ) capacitor c=0.0019508f //x=16.02 \
 //y=0 //x2=10.32 //y2=0.535
cc_215 ( N_GND_c_8_p N_noxref_12_c_1835_n ) capacitor c=0.00268883f //x=15.91 \
 //y=0 //x2=10.405 //y2=0.62
cc_216 ( N_GND_c_69_p N_noxref_12_c_1835_n ) capacitor c=0.0144105f //x=10.93 \
 //y=0 //x2=10.405 //y2=0.62
cc_217 ( N_GND_c_5_p N_noxref_12_c_1835_n ) capacitor c=0.0431718f //x=11.1 \
 //y=0 //x2=10.405 //y2=0.62
cc_218 ( N_GND_c_7_p N_noxref_12_c_1835_n ) capacitor c=0.00141054f //x=16.02 \
 //y=0 //x2=10.405 //y2=0.62
cc_219 ( N_GND_c_8_p N_noxref_12_M4_noxref_s ) capacitor c=0.0026904f \
 //x=15.91 //y=0 //x2=8.33 //y2=0.37
cc_220 ( N_GND_c_220_p N_noxref_12_M4_noxref_s ) capacitor c=0.0013253f \
 //x=7.15 //y=0.45 //x2=8.33 //y2=0.37
cc_221 ( N_GND_c_63_p N_noxref_12_M4_noxref_s ) capacitor c=0.0144735f \
 //x=8.865 //y=0 //x2=8.33 //y2=0.37
cc_222 ( N_GND_c_4_p N_noxref_12_M4_noxref_s ) capacitor c=0.058339f //x=7.77 \
 //y=0 //x2=8.33 //y2=0.37
cc_223 ( N_GND_c_5_p N_noxref_12_M4_noxref_s ) capacitor c=0.00200438f \
 //x=11.1 //y=0 //x2=8.33 //y2=0.37
cc_224 ( N_GND_c_7_p N_noxref_12_M4_noxref_s ) capacitor c=0.00141889f \
 //x=16.02 //y=0 //x2=8.33 //y2=0.37
cc_225 ( N_GND_M4_noxref_d N_noxref_12_M4_noxref_s ) capacitor c=0.0334197f \
 //x=8.76 //y=0.87 //x2=8.33 //y2=0.37
cc_226 ( N_GND_c_8_p N_noxref_14_c_1918_n ) capacitor c=0.00529166f //x=15.91 \
 //y=0 //x2=12.68 //y2=1.585
cc_227 ( N_GND_c_113_p N_noxref_14_c_1918_n ) capacitor c=0.00112205f \
 //x=12.195 //y=0 //x2=12.68 //y2=1.585
cc_228 ( N_GND_c_84_p N_noxref_14_c_1918_n ) capacitor c=0.00181496f //x=14.26 \
 //y=0 //x2=12.68 //y2=1.585