// File: MUX2X1.spi.pex
// Created: Tue Oct 15 15:49:38 2024
// Program "Calibre xRC"
// Version "v2023.2_27.15"
// Nominal Temperature: 30C
// Circuit Temperature: 30C
// 
simulator lang=spectre
subckt PM_MUX2X1\%GND ( 1 23 35 39 42 47 53 59 65 73 81 94 97 108 111 113 115 \
 116 117 118 )
c165 ( 118 0 ) capacitor c=0.0207871f //x=9.87 //y=0.865
c166 ( 117 0 ) capacitor c=0.0207873f //x=6.54 //y=0.865
c167 ( 116 0 ) capacitor c=0.0207871f //x=3.21 //y=0.865
c168 ( 115 0 ) capacitor c=0.0583152f //x=0.495 //y=0.37
c169 ( 114 0 ) capacitor c=0.00440095f //x=10.06 //y=0
c170 ( 113 0 ) capacitor c=0.106543f //x=8.88 //y=0
c171 ( 112 0 ) capacitor c=0.00440095f //x=6.73 //y=0
c172 ( 111 0 ) capacitor c=0.106543f //x=5.55 //y=0
c173 ( 110 0 ) capacitor c=0.00440095f //x=3.33 //y=0
c174 ( 108 0 ) capacitor c=0.102231f //x=2.22 //y=0
c175 ( 97 0 ) capacitor c=0.192978f //x=0.63 //y=0
c176 ( 94 0 ) capacitor c=0.259331f //x=11.47 //y=0
c177 ( 81 0 ) capacitor c=0.0389171f //x=9.975 //y=0
c178 ( 73 0 ) capacitor c=0.0718766f //x=8.71 //y=0
c179 ( 65 0 ) capacitor c=0.0389171f //x=6.645 //y=0
c180 ( 59 0 ) capacitor c=0.0720496f //x=5.38 //y=0
c181 ( 53 0 ) capacitor c=0.0389171f //x=3.315 //y=0
c182 ( 48 0 ) capacitor c=0.036088f //x=1.685 //y=0
c183 ( 47 0 ) capacitor c=0.0160123f //x=2.05 //y=0
c184 ( 42 0 ) capacitor c=0.00583665f //x=1.6 //y=0.45
c185 ( 39 0 ) capacitor c=0.00531808f //x=1.515 //y=0.535
c186 ( 38 0 ) capacitor c=0.00479856f //x=1.115 //y=0.45
c187 ( 35 0 ) capacitor c=0.00644318f //x=1.03 //y=0.535
c188 ( 30 0 ) capacitor c=0.00592191f //x=0.63 //y=0.45
c189 ( 23 0 ) capacitor c=0.424473f //x=11.47 //y=0
r190 (  100 101 ) resistor r=17.3894 //w=0.357 //l=0.485 //layer=li \
 //thickness=0.1 //x=1.115 //y=0 //x2=1.6 //y2=0
r191 (  99 100 ) resistor r=13.4454 //w=0.357 //l=0.375 //layer=li \
 //thickness=0.1 //x=0.74 //y=0 //x2=1.115 //y2=0
r192 (  97 99 ) resistor r=3.94398 //w=0.357 //l=0.11 //layer=li \
 //thickness=0.1 //x=0.63 //y=0 //x2=0.74 //y2=0
r193 (  92 94 ) resistor r=26.5322 //w=0.357 //l=0.74 //layer=li \
 //thickness=0.1 //x=10.73 //y=0 //x2=11.47 //y2=0
r194 (  90 114 ) resistor r=2.94794 //w=0.34 //l=0.085 //layer=li \
 //thickness=0.1 //x=10.145 //y=0 //x2=10.06 //y2=0
r195 (  90 92 ) resistor r=20.9748 //w=0.357 //l=0.585 //layer=li \
 //thickness=0.1 //x=10.145 //y=0 //x2=10.73 //y2=0
r196 (  85 114 ) resistor r=4.11603 //w=0.68 //l=0.17 //layer=li \
 //thickness=0.1 //x=10.06 //y=0.17 //x2=10.06 //y2=0
r197 (  85 118 ) resistor r=53.7326 //w=0.187 //l=0.785 //layer=li \
 //thickness=0.1 //x=10.06 //y=0.17 //x2=10.06 //y2=0.955
r198 (  82 113 ) resistor r=5.4201 //w=0.34 //l=0.17 //layer=li \
 //thickness=0.1 //x=9.05 //y=0 //x2=8.88 //y2=0
r199 (  82 84 ) resistor r=20.437 //w=0.357 //l=0.57 //layer=li \
 //thickness=0.1 //x=9.05 //y=0 //x2=9.62 //y2=0
r200 (  81 114 ) resistor r=2.94794 //w=0.34 //l=0.085 //layer=li \
 //thickness=0.1 //x=9.975 //y=0 //x2=10.06 //y2=0
r201 (  81 84 ) resistor r=12.7283 //w=0.357 //l=0.355 //layer=li \
 //thickness=0.1 //x=9.975 //y=0 //x2=9.62 //y2=0
r202 (  76 78 ) resistor r=39.7983 //w=0.357 //l=1.11 //layer=li \
 //thickness=0.1 //x=7.03 //y=0 //x2=8.14 //y2=0
r203 (  74 112 ) resistor r=2.94794 //w=0.34 //l=0.085 //layer=li \
 //thickness=0.1 //x=6.815 //y=0 //x2=6.73 //y2=0
r204 (  74 76 ) resistor r=7.70868 //w=0.357 //l=0.215 //layer=li \
 //thickness=0.1 //x=6.815 //y=0 //x2=7.03 //y2=0
r205 (  73 113 ) resistor r=5.4201 //w=0.34 //l=0.17 //layer=li \
 //thickness=0.1 //x=8.71 //y=0 //x2=8.88 //y2=0
r206 (  73 78 ) resistor r=20.437 //w=0.357 //l=0.57 //layer=li \
 //thickness=0.1 //x=8.71 //y=0 //x2=8.14 //y2=0
r207 (  69 112 ) resistor r=4.11603 //w=0.68 //l=0.17 //layer=li \
 //thickness=0.1 //x=6.73 //y=0.17 //x2=6.73 //y2=0
r208 (  69 117 ) resistor r=53.7326 //w=0.187 //l=0.785 //layer=li \
 //thickness=0.1 //x=6.73 //y=0.17 //x2=6.73 //y2=0.955
r209 (  66 111 ) resistor r=5.4201 //w=0.34 //l=0.17 //layer=li \
 //thickness=0.1 //x=5.72 //y=0 //x2=5.55 //y2=0
r210 (  66 68 ) resistor r=7.17087 //w=0.357 //l=0.2 //layer=li \
 //thickness=0.1 //x=5.72 //y=0 //x2=5.92 //y2=0
r211 (  65 112 ) resistor r=2.94794 //w=0.34 //l=0.085 //layer=li \
 //thickness=0.1 //x=6.645 //y=0 //x2=6.73 //y2=0
r212 (  65 68 ) resistor r=25.9944 //w=0.357 //l=0.725 //layer=li \
 //thickness=0.1 //x=6.645 //y=0 //x2=5.92 //y2=0
r213 (  60 110 ) resistor r=2.94794 //w=0.34 //l=0.085 //layer=li \
 //thickness=0.1 //x=3.485 //y=0 //x2=3.4 //y2=0
r214 (  60 62 ) resistor r=34.2409 //w=0.357 //l=0.955 //layer=li \
 //thickness=0.1 //x=3.485 //y=0 //x2=4.44 //y2=0
r215 (  59 111 ) resistor r=5.4201 //w=0.34 //l=0.17 //layer=li \
 //thickness=0.1 //x=5.38 //y=0 //x2=5.55 //y2=0
r216 (  59 62 ) resistor r=33.7031 //w=0.357 //l=0.94 //layer=li \
 //thickness=0.1 //x=5.38 //y=0 //x2=4.44 //y2=0
r217 (  55 110 ) resistor r=4.11603 //w=0.68 //l=0.17 //layer=li \
 //thickness=0.1 //x=3.4 //y=0.17 //x2=3.4 //y2=0
r218 (  55 116 ) resistor r=53.7326 //w=0.187 //l=0.785 //layer=li \
 //thickness=0.1 //x=3.4 //y=0.17 //x2=3.4 //y2=0.955
r219 (  54 108 ) resistor r=5.4201 //w=0.34 //l=0.17 //layer=li \
 //thickness=0.1 //x=2.39 //y=0 //x2=2.22 //y2=0
r220 (  53 110 ) resistor r=2.94794 //w=0.34 //l=0.085 //layer=li \
 //thickness=0.1 //x=3.315 //y=0 //x2=3.4 //y2=0
r221 (  53 54 ) resistor r=33.1653 //w=0.357 //l=0.925 //layer=li \
 //thickness=0.1 //x=3.315 //y=0 //x2=2.39 //y2=0
r222 (  48 101 ) resistor r=3.04762 //w=0.357 //l=0.085 //layer=li \
 //thickness=0.1 //x=1.685 //y=0 //x2=1.6 //y2=0
r223 (  48 50 ) resistor r=5.91597 //w=0.357 //l=0.165 //layer=li \
 //thickness=0.1 //x=1.685 //y=0 //x2=1.85 //y2=0
r224 (  47 108 ) resistor r=5.4201 //w=0.34 //l=0.17 //layer=li \
 //thickness=0.1 //x=2.05 //y=0 //x2=2.22 //y2=0
r225 (  47 50 ) resistor r=7.17087 //w=0.357 //l=0.2 //layer=li \
 //thickness=0.1 //x=2.05 //y=0 //x2=1.85 //y2=0
r226 (  43 115 ) resistor r=5.4201 //w=0.17 //l=0.085 //layer=li \
 //thickness=0.1 //x=1.6 //y=0.62 //x2=1.6 //y2=0.535
r227 (  43 115 ) resistor r=41.4118 //w=0.187 //l=0.605 //layer=li \
 //thickness=0.1 //x=1.6 //y=0.62 //x2=1.6 //y2=1.225
r228 (  42 115 ) resistor r=5.4201 //w=0.17 //l=0.085 //layer=li \
 //thickness=0.1 //x=1.6 //y=0.45 //x2=1.6 //y2=0.535
r229 (  41 101 ) resistor r=5.03728 //w=0.34 //l=0.17 //layer=li \
 //thickness=0.1 //x=1.6 //y=0.17 //x2=1.6 //y2=0
r230 (  41 42 ) resistor r=19.1658 //w=0.187 //l=0.28 //layer=li \
 //thickness=0.1 //x=1.6 //y=0.17 //x2=1.6 //y2=0.45
r231 (  40 115 ) resistor r=5.4201 //w=0.17 //l=0.085 //layer=li \
 //thickness=0.1 //x=1.2 //y=0.535 //x2=1.115 //y2=0.535
r232 (  39 115 ) resistor r=1.40859 //w=0.34 //l=0.085 //layer=li \
 //thickness=0.1 //x=1.515 //y=0.535 //x2=1.6 //y2=0.535
r233 (  39 40 ) resistor r=21.5615 //w=0.187 //l=0.315 //layer=li \
 //thickness=0.1 //x=1.515 //y=0.535 //x2=1.2 //y2=0.535
r234 (  38 115 ) resistor r=1.40859 //w=0.34 //l=0.085 //layer=li \
 //thickness=0.1 //x=1.115 //y=0.45 //x2=1.115 //y2=0.535
r235 (  37 100 ) resistor r=5.03728 //w=0.34 //l=0.17 //layer=li \
 //thickness=0.1 //x=1.115 //y=0.17 //x2=1.115 //y2=0
r236 (  37 38 ) resistor r=19.1658 //w=0.187 //l=0.28 //layer=li \
 //thickness=0.1 //x=1.115 //y=0.17 //x2=1.115 //y2=0.45
r237 (  36 115 ) resistor r=1.40859 //w=0.34 //l=0.085 //layer=li \
 //thickness=0.1 //x=0.715 //y=0.535 //x2=0.63 //y2=0.535
r238 (  35 115 ) resistor r=5.4201 //w=0.17 //l=0.085 //layer=li \
 //thickness=0.1 //x=1.03 //y=0.535 //x2=1.115 //y2=0.535
r239 (  35 36 ) resistor r=21.5615 //w=0.187 //l=0.315 //layer=li \
 //thickness=0.1 //x=1.03 //y=0.535 //x2=0.715 //y2=0.535
r240 (  31 115 ) resistor r=5.4201 //w=0.17 //l=0.085 //layer=li \
 //thickness=0.1 //x=0.63 //y=0.62 //x2=0.63 //y2=0.535
r241 (  31 115 ) resistor r=41.4118 //w=0.187 //l=0.605 //layer=li \
 //thickness=0.1 //x=0.63 //y=0.62 //x2=0.63 //y2=1.225
r242 (  30 115 ) resistor r=5.4201 //w=0.17 //l=0.085 //layer=li \
 //thickness=0.1 //x=0.63 //y=0.45 //x2=0.63 //y2=0.535
r243 (  29 97 ) resistor r=5.03728 //w=0.34 //l=0.17 //layer=li \
 //thickness=0.1 //x=0.63 //y=0.17 //x2=0.63 //y2=0
r244 (  29 30 ) resistor r=19.1658 //w=0.187 //l=0.28 //layer=li \
 //thickness=0.1 //x=0.63 //y=0.17 //x2=0.63 //y2=0.45
r245 (  23 94 ) resistor r=4.65 //w=0.17 //l=0.34 //layer=mcon //count=2 \
 //x=11.47 //y=0 //x2=11.47 //y2=0
r246 (  21 92 ) resistor r=3.1 //w=0.17 //l=0.51 //layer=mcon //count=3 \
 //x=10.73 //y=0 //x2=10.73 //y2=0
r247 (  21 23 ) resistor r=0.307309 //w=0.301 //l=0.74 //layer=m1 \
 //thickness=0.36 //x=10.73 //y=0 //x2=11.47 //y2=0
r248 (  19 84 ) resistor r=3.1 //w=0.17 //l=0.51 //layer=mcon //count=3 \
 //x=9.62 //y=0 //x2=9.62 //y2=0
r249 (  19 21 ) resistor r=0.460963 //w=0.301 //l=1.11 //layer=m1 \
 //thickness=0.36 //x=9.62 //y=0 //x2=10.73 //y2=0
r250 (  17 78 ) resistor r=3.1 //w=0.17 //l=0.51 //layer=mcon //count=3 \
 //x=8.14 //y=0 //x2=8.14 //y2=0
r251 (  17 19 ) resistor r=0.614618 //w=0.301 //l=1.48 //layer=m1 \
 //thickness=0.36 //x=8.14 //y=0 //x2=9.62 //y2=0
r252 (  15 76 ) resistor r=3.1 //w=0.17 //l=0.51 //layer=mcon //count=3 \
 //x=7.03 //y=0 //x2=7.03 //y2=0
r253 (  15 17 ) resistor r=0.460963 //w=0.301 //l=1.11 //layer=m1 \
 //thickness=0.36 //x=7.03 //y=0 //x2=8.14 //y2=0
r254 (  12 68 ) resistor r=3.1 //w=0.17 //l=0.51 //layer=mcon //count=3 \
 //x=5.92 //y=0 //x2=5.92 //y2=0
r255 (  10 62 ) resistor r=3.1 //w=0.17 //l=0.51 //layer=mcon //count=3 \
 //x=4.44 //y=0 //x2=4.44 //y2=0
r256 (  10 12 ) resistor r=0.614618 //w=0.301 //l=1.48 //layer=m1 \
 //thickness=0.36 //x=4.44 //y=0 //x2=5.92 //y2=0
r257 (  8 110 ) resistor r=3.1 //w=0.17 //l=0.51 //layer=mcon //count=3 \
 //x=3.33 //y=0 //x2=3.33 //y2=0
r258 (  8 10 ) resistor r=0.460963 //w=0.301 //l=1.11 //layer=m1 \
 //thickness=0.36 //x=3.33 //y=0 //x2=4.44 //y2=0
r259 (  6 50 ) resistor r=3.1 //w=0.17 //l=0.51 //layer=mcon //count=3 \
 //x=1.85 //y=0 //x2=1.85 //y2=0
r260 (  6 8 ) resistor r=0.614618 //w=0.301 //l=1.48 //layer=m1 \
 //thickness=0.36 //x=1.85 //y=0 //x2=3.33 //y2=0
r261 (  3 99 ) resistor r=3.1 //w=0.17 //l=0.51 //layer=mcon //count=3 \
 //x=0.74 //y=0 //x2=0.74 //y2=0
r262 (  3 6 ) resistor r=0.460963 //w=0.301 //l=1.11 //layer=m1 \
 //thickness=0.36 //x=0.74 //y=0 //x2=1.85 //y2=0
r263 (  1 15 ) resistor r=0.384136 //w=0.301 //l=0.925 //layer=m1 \
 //thickness=0.36 //x=6.105 //y=0 //x2=7.03 //y2=0
r264 (  1 12 ) resistor r=0.0768272 //w=0.301 //l=0.185 //layer=m1 \
 //thickness=0.36 //x=6.105 //y=0 //x2=5.92 //y2=0
ends PM_MUX2X1\%GND

subckt PM_MUX2X1\%VDD ( 1 23 35 57 67 91 101 121 129 144 146 150 155 160 161 \
 162 163 164 165 166 167 168 169 170 171 )
c163 ( 171 0 ) capacitor c=0.0383753f //x=11.285 //y=5.02
c164 ( 170 0 ) capacitor c=0.0241901f //x=10.405 //y=5.02
c165 ( 169 0 ) capacitor c=0.0499723f //x=9.535 //y=5.02
c166 ( 168 0 ) capacitor c=0.0382536f //x=7.955 //y=5.02
c167 ( 167 0 ) capacitor c=0.024222f //x=7.075 //y=5.02
c168 ( 166 0 ) capacitor c=0.0499723f //x=6.205 //y=5.02
c169 ( 165 0 ) capacitor c=0.0382565f //x=4.625 //y=5.02
c170 ( 164 0 ) capacitor c=0.0241904f //x=3.745 //y=5.02
c171 ( 163 0 ) capacitor c=0.0500634f //x=2.875 //y=5.02
c172 ( 162 0 ) capacitor c=0.0436617f //x=1.41 //y=5.02
c173 ( 161 0 ) capacitor c=0.0423206f //x=0.54 //y=5.02
c174 ( 160 0 ) capacitor c=0.243792f //x=11.47 //y=7.4
c175 ( 158 0 ) capacitor c=0.00591168f //x=10.55 //y=7.4
c176 ( 157 0 ) capacitor c=0.00591168f //x=9.62 //y=7.4
c177 ( 155 0 ) capacitor c=0.119448f //x=8.88 //y=7.4
c178 ( 154 0 ) capacitor c=0.00591168f //x=8.14 //y=7.4
c179 ( 152 0 ) capacitor c=0.00591168f //x=7.22 //y=7.4
c180 ( 151 0 ) capacitor c=0.00591168f //x=6.34 //y=7.4
c181 ( 150 0 ) capacitor c=0.119448f //x=5.55 //y=7.4
c182 ( 149 0 ) capacitor c=0.00591168f //x=4.77 //y=7.4
c183 ( 148 0 ) capacitor c=0.00591168f //x=3.89 //y=7.4
c184 ( 147 0 ) capacitor c=0.00591168f //x=3.01 //y=7.4
c185 ( 146 0 ) capacitor c=0.116993f //x=2.22 //y=7.4
c186 ( 145 0 ) capacitor c=0.00591168f //x=1.555 //y=7.4
c187 ( 144 0 ) capacitor c=0.233263f //x=0.74 //y=7.4
c188 ( 129 0 ) capacitor c=0.0285035f //x=11.345 //y=7.4
c189 ( 121 0 ) capacitor c=0.0286367f //x=10.465 //y=7.4
c190 ( 113 0 ) capacitor c=0.0281468f //x=9.585 //y=7.4
c191 ( 109 0 ) capacitor c=0.0275781f //x=8.71 //y=7.4
c192 ( 101 0 ) capacitor c=0.0285035f //x=8.015 //y=7.4
c193 ( 91 0 ) capacitor c=0.0286367f //x=7.135 //y=7.4
c194 ( 81 0 ) capacitor c=0.0281468f //x=6.255 //y=7.4
c195 ( 77 0 ) capacitor c=0.0275781f //x=5.38 //y=7.4
c196 ( 67 0 ) capacitor c=0.0285035f //x=4.685 //y=7.4
c197 ( 57 0 ) capacitor c=0.0286367f //x=3.805 //y=7.4
c198 ( 49 0 ) capacitor c=0.0281468f //x=2.925 //y=7.4
c199 ( 43 0 ) capacitor c=0.0210379f //x=2.05 //y=7.4
c200 ( 35 0 ) capacitor c=0.0287207f //x=1.47 //y=7.4
c201 ( 23 0 ) capacitor c=0.450693f //x=11.47 //y=7.4
r202 (  133 160 ) resistor r=4.11603 //w=0.68 //l=0.17 //layer=li \
 //thickness=0.1 //x=11.43 //y=7.23 //x2=11.43 //y2=7.4
r203 (  133 171 ) resistor r=33.1979 //w=0.187 //l=0.485 //layer=li \
 //thickness=0.1 //x=11.43 //y=7.23 //x2=11.43 //y2=6.745
r204 (  130 158 ) resistor r=2.94794 //w=0.34 //l=0.085 //layer=li \
 //thickness=0.1 //x=10.635 //y=7.4 //x2=10.55 //y2=7.4
r205 (  130 132 ) resistor r=3.40616 //w=0.357 //l=0.095 //layer=li \
 //thickness=0.1 //x=10.635 //y=7.4 //x2=10.73 //y2=7.4
r206 (  129 160 ) resistor r=2.94794 //w=0.34 //l=0.085 //layer=li \
 //thickness=0.1 //x=11.345 //y=7.4 //x2=11.43 //y2=7.4
r207 (  129 132 ) resistor r=22.0504 //w=0.357 //l=0.615 //layer=li \
 //thickness=0.1 //x=11.345 //y=7.4 //x2=10.73 //y2=7.4
r208 (  123 158 ) resistor r=4.11603 //w=0.68 //l=0.17 //layer=li \
 //thickness=0.1 //x=10.55 //y=7.23 //x2=10.55 //y2=7.4
r209 (  123 170 ) resistor r=33.1979 //w=0.187 //l=0.485 //layer=li \
 //thickness=0.1 //x=10.55 //y=7.23 //x2=10.55 //y2=6.745
r210 (  122 157 ) resistor r=2.94794 //w=0.34 //l=0.085 //layer=li \
 //thickness=0.1 //x=9.755 //y=7.4 //x2=9.67 //y2=7.4
r211 (  121 158 ) resistor r=2.94794 //w=0.34 //l=0.085 //layer=li \
 //thickness=0.1 //x=10.465 //y=7.4 //x2=10.55 //y2=7.4
r212 (  121 122 ) resistor r=25.4566 //w=0.357 //l=0.71 //layer=li \
 //thickness=0.1 //x=10.465 //y=7.4 //x2=9.755 //y2=7.4
r213 (  115 157 ) resistor r=4.11603 //w=0.68 //l=0.17 //layer=li \
 //thickness=0.1 //x=9.67 //y=7.23 //x2=9.67 //y2=7.4
r214 (  115 169 ) resistor r=56.4706 //w=0.187 //l=0.825 //layer=li \
 //thickness=0.1 //x=9.67 //y=7.23 //x2=9.67 //y2=6.405
r215 (  114 155 ) resistor r=5.4201 //w=0.34 //l=0.17 //layer=li \
 //thickness=0.1 //x=9.05 //y=7.4 //x2=8.88 //y2=7.4
r216 (  113 157 ) resistor r=2.94794 //w=0.34 //l=0.085 //layer=li \
 //thickness=0.1 //x=9.585 //y=7.4 //x2=9.67 //y2=7.4
r217 (  113 114 ) resistor r=19.1821 //w=0.357 //l=0.535 //layer=li \
 //thickness=0.1 //x=9.585 //y=7.4 //x2=9.05 //y2=7.4
r218 (  110 154 ) resistor r=2.94794 //w=0.34 //l=0.085 //layer=li \
 //thickness=0.1 //x=8.185 //y=7.4 //x2=8.1 //y2=7.4
r219 (  109 155 ) resistor r=5.4201 //w=0.34 //l=0.17 //layer=li \
 //thickness=0.1 //x=8.71 //y=7.4 //x2=8.88 //y2=7.4
r220 (  109 110 ) resistor r=18.8235 //w=0.357 //l=0.525 //layer=li \
 //thickness=0.1 //x=8.71 //y=7.4 //x2=8.185 //y2=7.4
r221 (  103 154 ) resistor r=4.11603 //w=0.68 //l=0.17 //layer=li \
 //thickness=0.1 //x=8.1 //y=7.23 //x2=8.1 //y2=7.4
r222 (  103 168 ) resistor r=33.1979 //w=0.187 //l=0.485 //layer=li \
 //thickness=0.1 //x=8.1 //y=7.23 //x2=8.1 //y2=6.745
r223 (  102 152 ) resistor r=2.94794 //w=0.34 //l=0.085 //layer=li \
 //thickness=0.1 //x=7.305 //y=7.4 //x2=7.22 //y2=7.4
r224 (  101 154 ) resistor r=2.94794 //w=0.34 //l=0.085 //layer=li \
 //thickness=0.1 //x=8.015 //y=7.4 //x2=8.1 //y2=7.4
r225 (  101 102 ) resistor r=25.4566 //w=0.357 //l=0.71 //layer=li \
 //thickness=0.1 //x=8.015 //y=7.4 //x2=7.305 //y2=7.4
r226 (  95 152 ) resistor r=4.11603 //w=0.68 //l=0.17 //layer=li \
 //thickness=0.1 //x=7.22 //y=7.23 //x2=7.22 //y2=7.4
r227 (  95 167 ) resistor r=33.1979 //w=0.187 //l=0.485 //layer=li \
 //thickness=0.1 //x=7.22 //y=7.23 //x2=7.22 //y2=6.745
r228 (  92 151 ) resistor r=2.94794 //w=0.34 //l=0.085 //layer=li \
 //thickness=0.1 //x=6.425 //y=7.4 //x2=6.34 //y2=7.4
r229 (  92 94 ) resistor r=21.6919 //w=0.357 //l=0.605 //layer=li \
 //thickness=0.1 //x=6.425 //y=7.4 //x2=7.03 //y2=7.4
r230 (  91 152 ) resistor r=2.94794 //w=0.34 //l=0.085 //layer=li \
 //thickness=0.1 //x=7.135 //y=7.4 //x2=7.22 //y2=7.4
r231 (  91 94 ) resistor r=3.76471 //w=0.357 //l=0.105 //layer=li \
 //thickness=0.1 //x=7.135 //y=7.4 //x2=7.03 //y2=7.4
r232 (  85 151 ) resistor r=4.11603 //w=0.68 //l=0.17 //layer=li \
 //thickness=0.1 //x=6.34 //y=7.23 //x2=6.34 //y2=7.4
r233 (  85 166 ) resistor r=56.4706 //w=0.187 //l=0.825 //layer=li \
 //thickness=0.1 //x=6.34 //y=7.23 //x2=6.34 //y2=6.405
r234 (  82 150 ) resistor r=5.4201 //w=0.34 //l=0.17 //layer=li \
 //thickness=0.1 //x=5.72 //y=7.4 //x2=5.55 //y2=7.4
r235 (  82 84 ) resistor r=7.17087 //w=0.357 //l=0.2 //layer=li \
 //thickness=0.1 //x=5.72 //y=7.4 //x2=5.92 //y2=7.4
r236 (  81 151 ) resistor r=2.94794 //w=0.34 //l=0.085 //layer=li \
 //thickness=0.1 //x=6.255 //y=7.4 //x2=6.34 //y2=7.4
r237 (  81 84 ) resistor r=12.0112 //w=0.357 //l=0.335 //layer=li \
 //thickness=0.1 //x=6.255 //y=7.4 //x2=5.92 //y2=7.4
r238 (  78 149 ) resistor r=2.94794 //w=0.34 //l=0.085 //layer=li \
 //thickness=0.1 //x=4.855 //y=7.4 //x2=4.77 //y2=7.4
r239 (  77 150 ) resistor r=5.4201 //w=0.34 //l=0.17 //layer=li \
 //thickness=0.1 //x=5.38 //y=7.4 //x2=5.55 //y2=7.4
r240 (  77 78 ) resistor r=18.8235 //w=0.357 //l=0.525 //layer=li \
 //thickness=0.1 //x=5.38 //y=7.4 //x2=4.855 //y2=7.4
r241 (  71 149 ) resistor r=4.11603 //w=0.68 //l=0.17 //layer=li \
 //thickness=0.1 //x=4.77 //y=7.23 //x2=4.77 //y2=7.4
r242 (  71 165 ) resistor r=33.1979 //w=0.187 //l=0.485 //layer=li \
 //thickness=0.1 //x=4.77 //y=7.23 //x2=4.77 //y2=6.745
r243 (  68 148 ) resistor r=2.94794 //w=0.34 //l=0.085 //layer=li \
 //thickness=0.1 //x=3.975 //y=7.4 //x2=3.89 //y2=7.4
r244 (  68 70 ) resistor r=16.6723 //w=0.357 //l=0.465 //layer=li \
 //thickness=0.1 //x=3.975 //y=7.4 //x2=4.44 //y2=7.4
r245 (  67 149 ) resistor r=2.94794 //w=0.34 //l=0.085 //layer=li \
 //thickness=0.1 //x=4.685 //y=7.4 //x2=4.77 //y2=7.4
r246 (  67 70 ) resistor r=8.78431 //w=0.357 //l=0.245 //layer=li \
 //thickness=0.1 //x=4.685 //y=7.4 //x2=4.44 //y2=7.4
r247 (  61 148 ) resistor r=4.11603 //w=0.68 //l=0.17 //layer=li \
 //thickness=0.1 //x=3.89 //y=7.23 //x2=3.89 //y2=7.4
r248 (  61 164 ) resistor r=33.1979 //w=0.187 //l=0.485 //layer=li \
 //thickness=0.1 //x=3.89 //y=7.23 //x2=3.89 //y2=6.745
r249 (  58 147 ) resistor r=2.94794 //w=0.34 //l=0.085 //layer=li \
 //thickness=0.1 //x=3.095 //y=7.4 //x2=3.01 //y2=7.4
r250 (  58 60 ) resistor r=8.42577 //w=0.357 //l=0.235 //layer=li \
 //thickness=0.1 //x=3.095 //y=7.4 //x2=3.33 //y2=7.4
r251 (  57 148 ) resistor r=2.94794 //w=0.34 //l=0.085 //layer=li \
 //thickness=0.1 //x=3.805 //y=7.4 //x2=3.89 //y2=7.4
r252 (  57 60 ) resistor r=17.0308 //w=0.357 //l=0.475 //layer=li \
 //thickness=0.1 //x=3.805 //y=7.4 //x2=3.33 //y2=7.4
r253 (  51 147 ) resistor r=4.11603 //w=0.68 //l=0.17 //layer=li \
 //thickness=0.1 //x=3.01 //y=7.23 //x2=3.01 //y2=7.4
r254 (  51 163 ) resistor r=56.4706 //w=0.187 //l=0.825 //layer=li \
 //thickness=0.1 //x=3.01 //y=7.23 //x2=3.01 //y2=6.405
r255 (  50 146 ) resistor r=5.4201 //w=0.34 //l=0.17 //layer=li \
 //thickness=0.1 //x=2.39 //y=7.4 //x2=2.22 //y2=7.4
r256 (  49 147 ) resistor r=2.94794 //w=0.34 //l=0.085 //layer=li \
 //thickness=0.1 //x=2.925 //y=7.4 //x2=3.01 //y2=7.4
r257 (  49 50 ) resistor r=19.1821 //w=0.357 //l=0.535 //layer=li \
 //thickness=0.1 //x=2.925 //y=7.4 //x2=2.39 //y2=7.4
r258 (  44 145 ) resistor r=2.94794 //w=0.34 //l=0.085 //layer=li \
 //thickness=0.1 //x=1.64 //y=7.4 //x2=1.555 //y2=7.4
r259 (  44 46 ) resistor r=7.52941 //w=0.357 //l=0.21 //layer=li \
 //thickness=0.1 //x=1.64 //y=7.4 //x2=1.85 //y2=7.4
r260 (  43 146 ) resistor r=5.4201 //w=0.34 //l=0.17 //layer=li \
 //thickness=0.1 //x=2.05 //y=7.4 //x2=2.22 //y2=7.4
r261 (  43 46 ) resistor r=7.17087 //w=0.357 //l=0.2 //layer=li \
 //thickness=0.1 //x=2.05 //y=7.4 //x2=1.85 //y2=7.4
r262 (  37 145 ) resistor r=4.11603 //w=0.68 //l=0.17 //layer=li \
 //thickness=0.1 //x=1.555 //y=7.23 //x2=1.555 //y2=7.4
r263 (  37 162 ) resistor r=56.4706 //w=0.187 //l=0.825 //layer=li \
 //thickness=0.1 //x=1.555 //y=7.23 //x2=1.555 //y2=6.405
r264 (  36 144 ) resistor r=2.94794 //w=0.34 //l=0.085 //layer=li \
 //thickness=0.1 //x=0.76 //y=7.4 //x2=0.675 //y2=7.4
r265 (  35 145 ) resistor r=2.94794 //w=0.34 //l=0.085 //layer=li \
 //thickness=0.1 //x=1.47 //y=7.4 //x2=1.555 //y2=7.4
r266 (  35 36 ) resistor r=25.4566 //w=0.357 //l=0.71 //layer=li \
 //thickness=0.1 //x=1.47 //y=7.4 //x2=0.76 //y2=7.4
r267 (  29 144 ) resistor r=4.11603 //w=0.68 //l=0.17 //layer=li \
 //thickness=0.1 //x=0.675 //y=7.23 //x2=0.675 //y2=7.4
r268 (  29 161 ) resistor r=56.4706 //w=0.187 //l=0.825 //layer=li \
 //thickness=0.1 //x=0.675 //y=7.23 //x2=0.675 //y2=6.405
r269 (  23 160 ) resistor r=4.65 //w=0.17 //l=0.34 //layer=mcon //count=2 \
 //x=11.47 //y=7.4 //x2=11.47 //y2=7.4
r270 (  21 132 ) resistor r=3.1 //w=0.17 //l=0.51 //layer=mcon //count=3 \
 //x=10.73 //y=7.4 //x2=10.73 //y2=7.4
r271 (  21 23 ) resistor r=0.307309 //w=0.301 //l=0.74 //layer=m1 \
 //thickness=0.36 //x=10.73 //y=7.4 //x2=11.47 //y2=7.4
r272 (  19 157 ) resistor r=3.1 //w=0.17 //l=0.51 //layer=mcon //count=3 \
 //x=9.62 //y=7.4 //x2=9.62 //y2=7.4
r273 (  19 21 ) resistor r=0.460963 //w=0.301 //l=1.11 //layer=m1 \
 //thickness=0.36 //x=9.62 //y=7.4 //x2=10.73 //y2=7.4
r274 (  17 154 ) resistor r=3.1 //w=0.17 //l=0.51 //layer=mcon //count=3 \
 //x=8.14 //y=7.4 //x2=8.14 //y2=7.4
r275 (  17 19 ) resistor r=0.614618 //w=0.301 //l=1.48 //layer=m1 \
 //thickness=0.36 //x=8.14 //y=7.4 //x2=9.62 //y2=7.4
r276 (  15 94 ) resistor r=3.1 //w=0.17 //l=0.51 //layer=mcon //count=3 \
 //x=7.03 //y=7.4 //x2=7.03 //y2=7.4
r277 (  15 17 ) resistor r=0.460963 //w=0.301 //l=1.11 //layer=m1 \
 //thickness=0.36 //x=7.03 //y=7.4 //x2=8.14 //y2=7.4
r278 (  12 84 ) resistor r=3.1 //w=0.17 //l=0.51 //layer=mcon //count=3 \
 //x=5.92 //y=7.4 //x2=5.92 //y2=7.4
r279 (  10 70 ) resistor r=3.1 //w=0.17 //l=0.51 //layer=mcon //count=3 \
 //x=4.44 //y=7.4 //x2=4.44 //y2=7.4
r280 (  10 12 ) resistor r=0.614618 //w=0.301 //l=1.48 //layer=m1 \
 //thickness=0.36 //x=4.44 //y=7.4 //x2=5.92 //y2=7.4
r281 (  8 60 ) resistor r=3.1 //w=0.17 //l=0.51 //layer=mcon //count=3 \
 //x=3.33 //y=7.4 //x2=3.33 //y2=7.4
r282 (  8 10 ) resistor r=0.460963 //w=0.301 //l=1.11 //layer=m1 \
 //thickness=0.36 //x=3.33 //y=7.4 //x2=4.44 //y2=7.4
r283 (  6 46 ) resistor r=3.1 //w=0.17 //l=0.51 //layer=mcon //count=3 \
 //x=1.85 //y=7.4 //x2=1.85 //y2=7.4
r284 (  6 8 ) resistor r=0.614618 //w=0.301 //l=1.48 //layer=m1 \
 //thickness=0.36 //x=1.85 //y=7.4 //x2=3.33 //y2=7.4
r285 (  3 144 ) resistor r=3.1 //w=0.17 //l=0.51 //layer=mcon //count=3 \
 //x=0.74 //y=7.4 //x2=0.74 //y2=7.4
r286 (  3 6 ) resistor r=0.460963 //w=0.301 //l=1.11 //layer=m1 \
 //thickness=0.36 //x=0.74 //y=7.4 //x2=1.85 //y2=7.4
r287 (  1 15 ) resistor r=0.384136 //w=0.301 //l=0.925 //layer=m1 \
 //thickness=0.36 //x=6.105 //y=7.4 //x2=7.03 //y2=7.4
r288 (  1 12 ) resistor r=0.0768272 //w=0.301 //l=0.185 //layer=m1 \
 //thickness=0.36 //x=6.105 //y=7.4 //x2=5.92 //y2=7.4
ends PM_MUX2X1\%VDD

subckt PM_MUX2X1\%S ( 1 2 7 8 9 10 11 12 13 14 15 16 17 18 19 21 35 47 48 49 \
 50 51 52 53 54 55 56 60 61 62 64 70 71 72 73 74 75 79 81 84 85 90 104 )
c127 ( 104 0 ) capacitor c=0.0667949f //x=3.33 //y=4.7
c128 ( 90 0 ) capacitor c=0.051138f //x=0.74 //y=2.085
c129 ( 85 0 ) capacitor c=0.0318948f //x=3.665 //y=1.21
c130 ( 84 0 ) capacitor c=0.0187384f //x=3.665 //y=0.865
c131 ( 81 0 ) capacitor c=0.0141798f //x=3.51 //y=1.365
c132 ( 79 0 ) capacitor c=0.0149844f //x=3.51 //y=0.71
c133 ( 75 0 ) capacitor c=0.0819722f //x=3.135 //y=1.915
c134 ( 74 0 ) capacitor c=0.0229722f //x=3.135 //y=1.52
c135 ( 73 0 ) capacitor c=0.0234352f //x=3.135 //y=1.21
c136 ( 72 0 ) capacitor c=0.0199343f //x=3.135 //y=0.865
c137 ( 71 0 ) capacitor c=0.0435629f //x=1.38 //y=1.255
c138 ( 70 0 ) capacitor c=0.0200386f //x=1.38 //y=0.91
c139 ( 64 0 ) capacitor c=0.0152946f //x=1.225 //y=1.41
c140 ( 62 0 ) capacitor c=0.0157804f //x=1.225 //y=0.755
c141 ( 61 0 ) capacitor c=0.0524167f //x=0.97 //y=4.79
c142 ( 60 0 ) capacitor c=0.0322983f //x=1.26 //y=4.79
c143 ( 56 0 ) capacitor c=0.0290017f //x=0.85 //y=1.92
c144 ( 55 0 ) capacitor c=0.0250027f //x=0.85 //y=1.565
c145 ( 54 0 ) capacitor c=0.0234316f //x=0.85 //y=1.255
c146 ( 53 0 ) capacitor c=0.0200596f //x=0.85 //y=0.91
c147 ( 52 0 ) capacitor c=0.110275f //x=3.67 //y=6.02
c148 ( 51 0 ) capacitor c=0.154305f //x=3.23 //y=6.02
c149 ( 50 0 ) capacitor c=0.154218f //x=1.335 //y=6.02
c150 ( 49 0 ) capacitor c=0.154243f //x=0.895 //y=6.02
c151 ( 35 0 ) capacitor c=0.0971096f //x=3.33 //y=2.08
c152 ( 21 0 ) capacitor c=0.110891f //x=0.74 //y=2.085
c153 ( 2 0 ) capacitor c=0.0133976f //x=0.855 //y=2.96
c154 ( 1 0 ) capacitor c=0.0813108f //x=3.215 //y=2.96
r155 (  102 104 ) resistor r=20.6867 //w=0.233 //l=0.1 //layer=ply \
 //thickness=0.18 //x=3.23 //y=4.7 //x2=3.33 //y2=4.7
r156 (  90 91 ) resistor r=17.5563 //w=0.302 //l=0.11 //layer=ply \
 //thickness=0.18 //x=0.74 //y=2.085 //x2=0.85 //y2=2.085
r157 (  86 104 ) resistor r=70.3348 //w=0.233 //l=0.414367 //layer=ply \
 //thickness=0.18 //x=3.67 //y=4.865 //x2=3.33 //y2=4.7
r158 (  85 106 ) resistor r=45.1352 //w=0.168 //l=0.173853 //layer=ply \
 //thickness=0.18 //x=3.665 //y=1.21 //x2=3.625 //y2=1.365
r159 (  84 105 ) resistor r=45.1352 //w=0.168 //l=0.173853 //layer=ply \
 //thickness=0.18 //x=3.665 //y=0.865 //x2=3.625 //y2=0.71
r160 (  84 85 ) resistor r=176.904 //w=0.094 //l=0.345 //layer=ply \
 //thickness=0.18 //x=3.665 //y=0.865 //x2=3.665 //y2=1.21
r161 (  82 101 ) resistor r=10.701 //w=0.21 //l=0.115 //layer=ply \
 //thickness=0.18 //x=3.29 //y=1.365 //x2=3.175 //y2=1.365
r162 (  81 106 ) resistor r=5.52526 //w=0.168 //l=0.115 //layer=ply \
 //thickness=0.18 //x=3.51 //y=1.365 //x2=3.625 //y2=1.365
r163 (  80 100 ) resistor r=5.52526 //w=0.168 //l=0.115 //layer=ply \
 //thickness=0.18 //x=3.29 //y=0.71 //x2=3.175 //y2=0.71
r164 (  79 105 ) resistor r=5.52526 //w=0.168 //l=0.115 //layer=ply \
 //thickness=0.18 //x=3.51 //y=0.71 //x2=3.625 //y2=0.71
r165 (  79 80 ) resistor r=112.809 //w=0.094 //l=0.22 //layer=ply \
 //thickness=0.18 //x=3.51 //y=0.71 //x2=3.29 //y2=0.71
r166 (  76 102 ) resistor r=13.0941 //w=0.233 //l=0.165 //layer=ply \
 //thickness=0.18 //x=3.23 //y=4.865 //x2=3.23 //y2=4.7
r167 (  75 99 ) resistor r=34.8111 //w=0.27 //l=0.264953 //layer=ply \
 //thickness=0.18 //x=3.135 //y=1.915 //x2=3.33 //y2=2.08
r168 (  74 101 ) resistor r=39.5823 //w=0.21 //l=0.173853 //layer=ply \
 //thickness=0.18 //x=3.135 //y=1.52 //x2=3.175 //y2=1.365
r169 (  74 75 ) resistor r=202.543 //w=0.094 //l=0.395 //layer=ply \
 //thickness=0.18 //x=3.135 //y=1.52 //x2=3.135 //y2=1.915
r170 (  73 101 ) resistor r=39.5823 //w=0.21 //l=0.173853 //layer=ply \
 //thickness=0.18 //x=3.135 //y=1.21 //x2=3.175 //y2=1.365
r171 (  72 100 ) resistor r=45.1352 //w=0.168 //l=0.173853 //layer=ply \
 //thickness=0.18 //x=3.135 //y=0.865 //x2=3.175 //y2=0.71
r172 (  72 73 ) resistor r=176.904 //w=0.094 //l=0.345 //layer=ply \
 //thickness=0.18 //x=3.135 //y=0.865 //x2=3.135 //y2=1.21
r173 (  71 97 ) resistor r=45.1352 //w=0.168 //l=0.173853 //layer=ply \
 //thickness=0.18 //x=1.38 //y=1.255 //x2=1.34 //y2=1.41
r174 (  70 96 ) resistor r=45.1352 //w=0.168 //l=0.173853 //layer=ply \
 //thickness=0.18 //x=1.38 //y=0.91 //x2=1.34 //y2=0.755
r175 (  70 71 ) resistor r=176.904 //w=0.094 //l=0.345 //layer=ply \
 //thickness=0.18 //x=1.38 //y=0.91 //x2=1.38 //y2=1.255
r176 (  65 95 ) resistor r=10.701 //w=0.21 //l=0.115 //layer=ply \
 //thickness=0.18 //x=1.005 //y=1.41 //x2=0.89 //y2=1.41
r177 (  64 97 ) resistor r=5.52526 //w=0.168 //l=0.115 //layer=ply \
 //thickness=0.18 //x=1.225 //y=1.41 //x2=1.34 //y2=1.41
r178 (  63 94 ) resistor r=5.52526 //w=0.168 //l=0.115 //layer=ply \
 //thickness=0.18 //x=1.005 //y=0.755 //x2=0.89 //y2=0.755
r179 (  62 96 ) resistor r=5.52526 //w=0.168 //l=0.115 //layer=ply \
 //thickness=0.18 //x=1.225 //y=0.755 //x2=1.34 //y2=0.755
r180 (  62 63 ) resistor r=112.809 //w=0.094 //l=0.22 //layer=ply \
 //thickness=0.18 //x=1.225 //y=0.755 //x2=1.005 //y2=0.755
r181 (  60 67 ) resistor r=26.9307 //w=0.15 //l=0.106066 //layer=ply \
 //thickness=0.18 //x=1.26 //y=4.79 //x2=1.335 //y2=4.865
r182 (  60 61 ) resistor r=148.702 //w=0.094 //l=0.29 //layer=ply \
 //thickness=0.18 //x=1.26 //y=4.79 //x2=0.97 //y2=4.79
r183 (  57 61 ) resistor r=23.403 //w=0.284 //l=0.106066 //layer=ply \
 //thickness=0.18 //x=0.895 //y=4.865 //x2=0.97 //y2=4.79
r184 (  57 93 ) resistor r=26.3063 //w=0.284 //l=0.229783 //layer=ply \
 //thickness=0.18 //x=0.895 //y=4.865 //x2=0.74 //y2=4.7
r185 (  56 91 ) resistor r=19.1248 //w=0.302 //l=0.165 //layer=ply \
 //thickness=0.18 //x=0.85 //y=1.92 //x2=0.85 //y2=2.085
r186 (  55 95 ) resistor r=39.5823 //w=0.21 //l=0.173853 //layer=ply \
 //thickness=0.18 //x=0.85 //y=1.565 //x2=0.89 //y2=1.41
r187 (  55 56 ) resistor r=182.032 //w=0.094 //l=0.355 //layer=ply \
 //thickness=0.18 //x=0.85 //y=1.565 //x2=0.85 //y2=1.92
r188 (  54 95 ) resistor r=39.5823 //w=0.21 //l=0.173853 //layer=ply \
 //thickness=0.18 //x=0.85 //y=1.255 //x2=0.89 //y2=1.41
r189 (  53 94 ) resistor r=45.1352 //w=0.168 //l=0.173853 //layer=ply \
 //thickness=0.18 //x=0.85 //y=0.91 //x2=0.89 //y2=0.755
r190 (  53 54 ) resistor r=176.904 //w=0.094 //l=0.345 //layer=ply \
 //thickness=0.18 //x=0.85 //y=0.91 //x2=0.85 //y2=1.255
r191 (  52 86 ) resistor r=592.245 //w=0.094 //l=1.155 //layer=ply \
 //thickness=0.18 //x=3.67 //y=6.02 //x2=3.67 //y2=4.865
r192 (  51 76 ) resistor r=592.245 //w=0.094 //l=1.155 //layer=ply \
 //thickness=0.18 //x=3.23 //y=6.02 //x2=3.23 //y2=4.865
r193 (  50 67 ) resistor r=592.245 //w=0.094 //l=1.155 //layer=ply \