// File: mux2x1_pcell.spi.pex
// Created: Tue Oct 15 15:57:26 2024
// Program "Calibre xRC"
// Version "v2023.2_27.15"
// Nominal Temperature: 30C
// Circuit Temperature: 30C
// 
simulator lang=spectre
subckt PM_MUX2X1_PCELL\%noxref_1 ( 21 33 37 40 45 51 57 63 71 79 92 95 106 109 \
 111 113 114 115 116 )
c165 ( 116 0 ) capacitor c=0.0207871f //x=9.87 //y=0.865
c166 ( 115 0 ) capacitor c=0.0207873f //x=6.54 //y=0.865
c167 ( 114 0 ) capacitor c=0.0207871f //x=3.21 //y=0.865
c168 ( 113 0 ) capacitor c=0.0583152f //x=0.495 //y=0.37
c169 ( 112 0 ) capacitor c=0.00440095f //x=10.06 //y=0
c170 ( 111 0 ) capacitor c=0.106543f //x=8.88 //y=0
c171 ( 110 0 ) capacitor c=0.00440095f //x=6.73 //y=0
c172 ( 109 0 ) capacitor c=0.106543f //x=5.55 //y=0
c173 ( 108 0 ) capacitor c=0.00440095f //x=3.33 //y=0
c174 ( 106 0 ) capacitor c=0.102231f //x=2.22 //y=0
c175 ( 95 0 ) capacitor c=0.192978f //x=0.63 //y=0
c176 ( 92 0 ) capacitor c=0.259331f //x=11.47 //y=0
c177 ( 79 0 ) capacitor c=0.0389171f //x=9.975 //y=0
c178 ( 71 0 ) capacitor c=0.0718766f //x=8.71 //y=0
c179 ( 63 0 ) capacitor c=0.0389171f //x=6.645 //y=0
c180 ( 57 0 ) capacitor c=0.0720496f //x=5.38 //y=0
c181 ( 51 0 ) capacitor c=0.0389171f //x=3.315 //y=0
c182 ( 46 0 ) capacitor c=0.036088f //x=1.685 //y=0
c183 ( 45 0 ) capacitor c=0.0160123f //x=2.05 //y=0
c184 ( 40 0 ) capacitor c=0.00583665f //x=1.6 //y=0.45
c185 ( 37 0 ) capacitor c=0.00531808f //x=1.515 //y=0.535
c186 ( 36 0 ) capacitor c=0.00479856f //x=1.115 //y=0.45
c187 ( 33 0 ) capacitor c=0.00644318f //x=1.03 //y=0.535
c188 ( 28 0 ) capacitor c=0.00592191f //x=0.63 //y=0.45
c189 ( 21 0 ) capacitor c=0.424473f //x=11.47 //y=0
r190 (  98 99 ) resistor r=17.3894 //w=0.357 //l=0.485 //layer=li \
 //thickness=0.1 //x=1.115 //y=0 //x2=1.6 //y2=0
r191 (  97 98 ) resistor r=13.4454 //w=0.357 //l=0.375 //layer=li \
 //thickness=0.1 //x=0.74 //y=0 //x2=1.115 //y2=0
r192 (  95 97 ) resistor r=3.94398 //w=0.357 //l=0.11 //layer=li \
 //thickness=0.1 //x=0.63 //y=0 //x2=0.74 //y2=0
r193 (  90 92 ) resistor r=26.5322 //w=0.357 //l=0.74 //layer=li \
 //thickness=0.1 //x=10.73 //y=0 //x2=11.47 //y2=0
r194 (  88 112 ) resistor r=2.94794 //w=0.34 //l=0.085 //layer=li \
 //thickness=0.1 //x=10.145 //y=0 //x2=10.06 //y2=0
r195 (  88 90 ) resistor r=20.9748 //w=0.357 //l=0.585 //layer=li \
 //thickness=0.1 //x=10.145 //y=0 //x2=10.73 //y2=0
r196 (  83 112 ) resistor r=4.11603 //w=0.68 //l=0.17 //layer=li \
 //thickness=0.1 //x=10.06 //y=0.17 //x2=10.06 //y2=0
r197 (  83 116 ) resistor r=53.7326 //w=0.187 //l=0.785 //layer=li \
 //thickness=0.1 //x=10.06 //y=0.17 //x2=10.06 //y2=0.955
r198 (  80 111 ) resistor r=5.4201 //w=0.34 //l=0.17 //layer=li \
 //thickness=0.1 //x=9.05 //y=0 //x2=8.88 //y2=0
r199 (  80 82 ) resistor r=20.437 //w=0.357 //l=0.57 //layer=li \
 //thickness=0.1 //x=9.05 //y=0 //x2=9.62 //y2=0
r200 (  79 112 ) resistor r=2.94794 //w=0.34 //l=0.085 //layer=li \
 //thickness=0.1 //x=9.975 //y=0 //x2=10.06 //y2=0
r201 (  79 82 ) resistor r=12.7283 //w=0.357 //l=0.355 //layer=li \
 //thickness=0.1 //x=9.975 //y=0 //x2=9.62 //y2=0
r202 (  74 76 ) resistor r=39.7983 //w=0.357 //l=1.11 //layer=li \
 //thickness=0.1 //x=7.03 //y=0 //x2=8.14 //y2=0
r203 (  72 110 ) resistor r=2.94794 //w=0.34 //l=0.085 //layer=li \
 //thickness=0.1 //x=6.815 //y=0 //x2=6.73 //y2=0
r204 (  72 74 ) resistor r=7.70868 //w=0.357 //l=0.215 //layer=li \
 //thickness=0.1 //x=6.815 //y=0 //x2=7.03 //y2=0
r205 (  71 111 ) resistor r=5.4201 //w=0.34 //l=0.17 //layer=li \
 //thickness=0.1 //x=8.71 //y=0 //x2=8.88 //y2=0
r206 (  71 76 ) resistor r=20.437 //w=0.357 //l=0.57 //layer=li \
 //thickness=0.1 //x=8.71 //y=0 //x2=8.14 //y2=0
r207 (  67 110 ) resistor r=4.11603 //w=0.68 //l=0.17 //layer=li \
 //thickness=0.1 //x=6.73 //y=0.17 //x2=6.73 //y2=0
r208 (  67 115 ) resistor r=53.7326 //w=0.187 //l=0.785 //layer=li \
 //thickness=0.1 //x=6.73 //y=0.17 //x2=6.73 //y2=0.955
r209 (  64 109 ) resistor r=5.4201 //w=0.34 //l=0.17 //layer=li \
 //thickness=0.1 //x=5.72 //y=0 //x2=5.55 //y2=0
r210 (  64 66 ) resistor r=7.17087 //w=0.357 //l=0.2 //layer=li \
 //thickness=0.1 //x=5.72 //y=0 //x2=5.92 //y2=0
r211 (  63 110 ) resistor r=2.94794 //w=0.34 //l=0.085 //layer=li \
 //thickness=0.1 //x=6.645 //y=0 //x2=6.73 //y2=0
r212 (  63 66 ) resistor r=25.9944 //w=0.357 //l=0.725 //layer=li \
 //thickness=0.1 //x=6.645 //y=0 //x2=5.92 //y2=0
r213 (  58 108 ) resistor r=2.94794 //w=0.34 //l=0.085 //layer=li \
 //thickness=0.1 //x=3.485 //y=0 //x2=3.4 //y2=0
r214 (  58 60 ) resistor r=34.2409 //w=0.357 //l=0.955 //layer=li \
 //thickness=0.1 //x=3.485 //y=0 //x2=4.44 //y2=0
r215 (  57 109 ) resistor r=5.4201 //w=0.34 //l=0.17 //layer=li \
 //thickness=0.1 //x=5.38 //y=0 //x2=5.55 //y2=0
r216 (  57 60 ) resistor r=33.7031 //w=0.357 //l=0.94 //layer=li \
 //thickness=0.1 //x=5.38 //y=0 //x2=4.44 //y2=0
r217 (  53 108 ) resistor r=4.11603 //w=0.68 //l=0.17 //layer=li \
 //thickness=0.1 //x=3.4 //y=0.17 //x2=3.4 //y2=0
r218 (  53 114 ) resistor r=53.7326 //w=0.187 //l=0.785 //layer=li \
 //thickness=0.1 //x=3.4 //y=0.17 //x2=3.4 //y2=0.955
r219 (  52 106 ) resistor r=5.4201 //w=0.34 //l=0.17 //layer=li \
 //thickness=0.1 //x=2.39 //y=0 //x2=2.22 //y2=0
r220 (  51 108 ) resistor r=2.94794 //w=0.34 //l=0.085 //layer=li \
 //thickness=0.1 //x=3.315 //y=0 //x2=3.4 //y2=0
r221 (  51 52 ) resistor r=33.1653 //w=0.357 //l=0.925 //layer=li \
 //thickness=0.1 //x=3.315 //y=0 //x2=2.39 //y2=0
r222 (  46 99 ) resistor r=3.04762 //w=0.357 //l=0.085 //layer=li \
 //thickness=0.1 //x=1.685 //y=0 //x2=1.6 //y2=0
r223 (  46 48 ) resistor r=5.91597 //w=0.357 //l=0.165 //layer=li \
 //thickness=0.1 //x=1.685 //y=0 //x2=1.85 //y2=0
r224 (  45 106 ) resistor r=5.4201 //w=0.34 //l=0.17 //layer=li \
 //thickness=0.1 //x=2.05 //y=0 //x2=2.22 //y2=0
r225 (  45 48 ) resistor r=7.17087 //w=0.357 //l=0.2 //layer=li \
 //thickness=0.1 //x=2.05 //y=0 //x2=1.85 //y2=0
r226 (  41 113 ) resistor r=5.4201 //w=0.17 //l=0.085 //layer=li \
 //thickness=0.1 //x=1.6 //y=0.62 //x2=1.6 //y2=0.535
r227 (  41 113 ) resistor r=41.4118 //w=0.187 //l=0.605 //layer=li \
 //thickness=0.1 //x=1.6 //y=0.62 //x2=1.6 //y2=1.225
r228 (  40 113 ) resistor r=5.4201 //w=0.17 //l=0.085 //layer=li \
 //thickness=0.1 //x=1.6 //y=0.45 //x2=1.6 //y2=0.535
r229 (  39 99 ) resistor r=5.03728 //w=0.34 //l=0.17 //layer=li \
 //thickness=0.1 //x=1.6 //y=0.17 //x2=1.6 //y2=0
r230 (  39 40 ) resistor r=19.1658 //w=0.187 //l=0.28 //layer=li \
 //thickness=0.1 //x=1.6 //y=0.17 //x2=1.6 //y2=0.45
r231 (  38 113 ) resistor r=5.4201 //w=0.17 //l=0.085 //layer=li \
 //thickness=0.1 //x=1.2 //y=0.535 //x2=1.115 //y2=0.535
r232 (  37 113 ) resistor r=1.40859 //w=0.34 //l=0.085 //layer=li \
 //thickness=0.1 //x=1.515 //y=0.535 //x2=1.6 //y2=0.535
r233 (  37 38 ) resistor r=21.5615 //w=0.187 //l=0.315 //layer=li \
 //thickness=0.1 //x=1.515 //y=0.535 //x2=1.2 //y2=0.535
r234 (  36 113 ) resistor r=1.40859 //w=0.34 //l=0.085 //layer=li \
 //thickness=0.1 //x=1.115 //y=0.45 //x2=1.115 //y2=0.535
r235 (  35 98 ) resistor r=5.03728 //w=0.34 //l=0.17 //layer=li \
 //thickness=0.1 //x=1.115 //y=0.17 //x2=1.115 //y2=0
r236 (  35 36 ) resistor r=19.1658 //w=0.187 //l=0.28 //layer=li \
 //thickness=0.1 //x=1.115 //y=0.17 //x2=1.115 //y2=0.45
r237 (  34 113 ) resistor r=1.40859 //w=0.34 //l=0.085 //layer=li \
 //thickness=0.1 //x=0.715 //y=0.535 //x2=0.63 //y2=0.535
r238 (  33 113 ) resistor r=5.4201 //w=0.17 //l=0.085 //layer=li \
 //thickness=0.1 //x=1.03 //y=0.535 //x2=1.115 //y2=0.535
r239 (  33 34 ) resistor r=21.5615 //w=0.187 //l=0.315 //layer=li \
 //thickness=0.1 //x=1.03 //y=0.535 //x2=0.715 //y2=0.535
r240 (  29 113 ) resistor r=5.4201 //w=0.17 //l=0.085 //layer=li \
 //thickness=0.1 //x=0.63 //y=0.62 //x2=0.63 //y2=0.535
r241 (  29 113 ) resistor r=41.4118 //w=0.187 //l=0.605 //layer=li \
 //thickness=0.1 //x=0.63 //y=0.62 //x2=0.63 //y2=1.225
r242 (  28 113 ) resistor r=5.4201 //w=0.17 //l=0.085 //layer=li \
 //thickness=0.1 //x=0.63 //y=0.45 //x2=0.63 //y2=0.535
r243 (  27 95 ) resistor r=5.03728 //w=0.34 //l=0.17 //layer=li \
 //thickness=0.1 //x=0.63 //y=0.17 //x2=0.63 //y2=0
r244 (  27 28 ) resistor r=19.1658 //w=0.187 //l=0.28 //layer=li \
 //thickness=0.1 //x=0.63 //y=0.17 //x2=0.63 //y2=0.45
r245 (  21 92 ) resistor r=4.65 //w=0.17 //l=0.34 //layer=mcon //count=2 \
 //x=11.47 //y=0 //x2=11.47 //y2=0
r246 (  19 90 ) resistor r=3.1 //w=0.17 //l=0.51 //layer=mcon //count=3 \
 //x=10.73 //y=0 //x2=10.73 //y2=0
r247 (  19 21 ) resistor r=0.307309 //w=0.301 //l=0.74 //layer=m1 \
 //thickness=0.36 //x=10.73 //y=0 //x2=11.47 //y2=0
r248 (  17 82 ) resistor r=3.1 //w=0.17 //l=0.51 //layer=mcon //count=3 \
 //x=9.62 //y=0 //x2=9.62 //y2=0
r249 (  17 19 ) resistor r=0.460963 //w=0.301 //l=1.11 //layer=m1 \
 //thickness=0.36 //x=9.62 //y=0 //x2=10.73 //y2=0
r250 (  15 76 ) resistor r=3.1 //w=0.17 //l=0.51 //layer=mcon //count=3 \
 //x=8.14 //y=0 //x2=8.14 //y2=0
r251 (  15 17 ) resistor r=0.614618 //w=0.301 //l=1.48 //layer=m1 \
 //thickness=0.36 //x=8.14 //y=0 //x2=9.62 //y2=0
r252 (  13 74 ) resistor r=3.1 //w=0.17 //l=0.51 //layer=mcon //count=3 \
 //x=7.03 //y=0 //x2=7.03 //y2=0
r253 (  13 15 ) resistor r=0.460963 //w=0.301 //l=1.11 //layer=m1 \
 //thickness=0.36 //x=7.03 //y=0 //x2=8.14 //y2=0
r254 (  11 66 ) resistor r=3.1 //w=0.17 //l=0.51 //layer=mcon //count=3 \
 //x=5.92 //y=0 //x2=5.92 //y2=0
r255 (  11 13 ) resistor r=0.460963 //w=0.301 //l=1.11 //layer=m1 \
 //thickness=0.36 //x=5.92 //y=0 //x2=7.03 //y2=0
r256 (  9 60 ) resistor r=3.1 //w=0.17 //l=0.51 //layer=mcon //count=3 \
 //x=4.44 //y=0 //x2=4.44 //y2=0
r257 (  9 11 ) resistor r=0.614618 //w=0.301 //l=1.48 //layer=m1 \
 //thickness=0.36 //x=4.44 //y=0 //x2=5.92 //y2=0
r258 (  7 108 ) resistor r=3.1 //w=0.17 //l=0.51 //layer=mcon //count=3 \
 //x=3.33 //y=0 //x2=3.33 //y2=0
r259 (  7 9 ) resistor r=0.460963 //w=0.301 //l=1.11 //layer=m1 \
 //thickness=0.36 //x=3.33 //y=0 //x2=4.44 //y2=0
r260 (  5 48 ) resistor r=3.1 //w=0.17 //l=0.51 //layer=mcon //count=3 \
 //x=1.85 //y=0 //x2=1.85 //y2=0
r261 (  5 7 ) resistor r=0.614618 //w=0.301 //l=1.48 //layer=m1 \
 //thickness=0.36 //x=1.85 //y=0 //x2=3.33 //y2=0
r262 (  2 97 ) resistor r=3.1 //w=0.17 //l=0.51 //layer=mcon //count=3 \
 //x=0.74 //y=0 //x2=0.74 //y2=0
r263 (  2 5 ) resistor r=0.460963 //w=0.301 //l=1.11 //layer=m1 \
 //thickness=0.36 //x=0.74 //y=0 //x2=1.85 //y2=0
ends PM_MUX2X1_PCELL\%noxref_1

subckt PM_MUX2X1_PCELL\%noxref_2 ( 21 33 55 65 89 99 119 127 142 144 148 153 \
 158 159 160 161 162 163 164 165 166 167 168 169 )
c163 ( 169 0 ) capacitor c=0.0383753f //x=11.285 //y=5.02
c164 ( 168 0 ) capacitor c=0.0241901f //x=10.405 //y=5.02
c165 ( 167 0 ) capacitor c=0.0499723f //x=9.535 //y=5.02
c166 ( 166 0 ) capacitor c=0.0382536f //x=7.955 //y=5.02
c167 ( 165 0 ) capacitor c=0.024222f //x=7.075 //y=5.02
c168 ( 164 0 ) capacitor c=0.0499723f //x=6.205 //y=5.02
c169 ( 163 0 ) capacitor c=0.0382565f //x=4.625 //y=5.02
c170 ( 162 0 ) capacitor c=0.0241904f //x=3.745 //y=5.02
c171 ( 161 0 ) capacitor c=0.0500634f //x=2.875 //y=5.02
c172 ( 160 0 ) capacitor c=0.0436617f //x=1.41 //y=5.02
c173 ( 159 0 ) capacitor c=0.0423206f //x=0.54 //y=5.02
c174 ( 158 0 ) capacitor c=0.243792f //x=11.47 //y=7.4
c175 ( 156 0 ) capacitor c=0.00591168f //x=10.55 //y=7.4
c176 ( 155 0 ) capacitor c=0.00591168f //x=9.62 //y=7.4
c177 ( 153 0 ) capacitor c=0.119448f //x=8.88 //y=7.4
c178 ( 152 0 ) capacitor c=0.00591168f //x=8.14 //y=7.4
c179 ( 150 0 ) capacitor c=0.00591168f //x=7.22 //y=7.4
c180 ( 149 0 ) capacitor c=0.00591168f //x=6.34 //y=7.4
c181 ( 148 0 ) capacitor c=0.119448f //x=5.55 //y=7.4
c182 ( 147 0 ) capacitor c=0.00591168f //x=4.77 //y=7.4
c183 ( 146 0 ) capacitor c=0.00591168f //x=3.89 //y=7.4
c184 ( 145 0 ) capacitor c=0.00591168f //x=3.01 //y=7.4
c185 ( 144 0 ) capacitor c=0.116993f //x=2.22 //y=7.4
c186 ( 143 0 ) capacitor c=0.00591168f //x=1.555 //y=7.4
c187 ( 142 0 ) capacitor c=0.233263f //x=0.74 //y=7.4
c188 ( 127 0 ) capacitor c=0.0285035f //x=11.345 //y=7.4
c189 ( 119 0 ) capacitor c=0.0286367f //x=10.465 //y=7.4
c190 ( 111 0 ) capacitor c=0.0281468f //x=9.585 //y=7.4
c191 ( 107 0 ) capacitor c=0.0275781f //x=8.71 //y=7.4
c192 ( 99 0 ) capacitor c=0.0285035f //x=8.015 //y=7.4
c193 ( 89 0 ) capacitor c=0.0286367f //x=7.135 //y=7.4
c194 ( 79 0 ) capacitor c=0.0281468f //x=6.255 //y=7.4
c195 ( 75 0 ) capacitor c=0.0275781f //x=5.38 //y=7.4
c196 ( 65 0 ) capacitor c=0.0285035f //x=4.685 //y=7.4
c197 ( 55 0 ) capacitor c=0.0286367f //x=3.805 //y=7.4
c198 ( 47 0 ) capacitor c=0.0281468f //x=2.925 //y=7.4
c199 ( 41 0 ) capacitor c=0.0210379f //x=2.05 //y=7.4
c200 ( 33 0 ) capacitor c=0.0287207f //x=1.47 //y=7.4
c201 ( 21 0 ) capacitor c=0.450693f //x=11.47 //y=7.4
r202 (  131 158 ) resistor r=4.11603 //w=0.68 //l=0.17 //layer=li \
 //thickness=0.1 //x=11.43 //y=7.23 //x2=11.43 //y2=7.4
r203 (  131 169 ) resistor r=33.1979 //w=0.187 //l=0.485 //layer=li \
 //thickness=0.1 //x=11.43 //y=7.23 //x2=11.43 //y2=6.745
r204 (  128 156 ) resistor r=2.94794 //w=0.34 //l=0.085 //layer=li \
 //thickness=0.1 //x=10.635 //y=7.4 //x2=10.55 //y2=7.4
r205 (  128 130 ) resistor r=3.40616 //w=0.357 //l=0.095 //layer=li \
 //thickness=0.1 //x=10.635 //y=7.4 //x2=10.73 //y2=7.4
r206 (  127 158 ) resistor r=2.94794 //w=0.34 //l=0.085 //layer=li \
 //thickness=0.1 //x=11.345 //y=7.4 //x2=11.43 //y2=7.4
r207 (  127 130 ) resistor r=22.0504 //w=0.357 //l=0.615 //layer=li \
 //thickness=0.1 //x=11.345 //y=7.4 //x2=10.73 //y2=7.4
r208 (  121 156 ) resistor r=4.11603 //w=0.68 //l=0.17 //layer=li \
 //thickness=0.1 //x=10.55 //y=7.23 //x2=10.55 //y2=7.4
r209 (  121 168 ) resistor r=33.1979 //w=0.187 //l=0.485 //layer=li \
 //thickness=0.1 //x=10.55 //y=7.23 //x2=10.55 //y2=6.745
r210 (  120 155 ) resistor r=2.94794 //w=0.34 //l=0.085 //layer=li \
 //thickness=0.1 //x=9.755 //y=7.4 //x2=9.67 //y2=7.4
r211 (  119 156 ) resistor r=2.94794 //w=0.34 //l=0.085 //layer=li \
 //thickness=0.1 //x=10.465 //y=7.4 //x2=10.55 //y2=7.4
r212 (  119 120 ) resistor r=25.4566 //w=0.357 //l=0.71 //layer=li \
 //thickness=0.1 //x=10.465 //y=7.4 //x2=9.755 //y2=7.4
r213 (  113 155 ) resistor r=4.11603 //w=0.68 //l=0.17 //layer=li \
 //thickness=0.1 //x=9.67 //y=7.23 //x2=9.67 //y2=7.4
r214 (  113 167 ) resistor r=56.4706 //w=0.187 //l=0.825 //layer=li \
 //thickness=0.1 //x=9.67 //y=7.23 //x2=9.67 //y2=6.405
r215 (  112 153 ) resistor r=5.4201 //w=0.34 //l=0.17 //layer=li \
 //thickness=0.1 //x=9.05 //y=7.4 //x2=8.88 //y2=7.4
r216 (  111 155 ) resistor r=2.94794 //w=0.34 //l=0.085 //layer=li \
 //thickness=0.1 //x=9.585 //y=7.4 //x2=9.67 //y2=7.4
r217 (  111 112 ) resistor r=19.1821 //w=0.357 //l=0.535 //layer=li \
 //thickness=0.1 //x=9.585 //y=7.4 //x2=9.05 //y2=7.4
r218 (  108 152 ) resistor r=2.94794 //w=0.34 //l=0.085 //layer=li \
 //thickness=0.1 //x=8.185 //y=7.4 //x2=8.1 //y2=7.4
r219 (  107 153 ) resistor r=5.4201 //w=0.34 //l=0.17 //layer=li \
 //thickness=0.1 //x=8.71 //y=7.4 //x2=8.88 //y2=7.4
r220 (  107 108 ) resistor r=18.8235 //w=0.357 //l=0.525 //layer=li \
 //thickness=0.1 //x=8.71 //y=7.4 //x2=8.185 //y2=7.4
r221 (  101 152 ) resistor r=4.11603 //w=0.68 //l=0.17 //layer=li \
 //thickness=0.1 //x=8.1 //y=7.23 //x2=8.1 //y2=7.4
r222 (  101 166 ) resistor r=33.1979 //w=0.187 //l=0.485 //layer=li \
 //thickness=0.1 //x=8.1 //y=7.23 //x2=8.1 //y2=6.745
r223 (  100 150 ) resistor r=2.94794 //w=0.34 //l=0.085 //layer=li \
 //thickness=0.1 //x=7.305 //y=7.4 //x2=7.22 //y2=7.4
r224 (  99 152 ) resistor r=2.94794 //w=0.34 //l=0.085 //layer=li \
 //thickness=0.1 //x=8.015 //y=7.4 //x2=8.1 //y2=7.4
r225 (  99 100 ) resistor r=25.4566 //w=0.357 //l=0.71 //layer=li \
 //thickness=0.1 //x=8.015 //y=7.4 //x2=7.305 //y2=7.4
r226 (  93 150 ) resistor r=4.11603 //w=0.68 //l=0.17 //layer=li \
 //thickness=0.1 //x=7.22 //y=7.23 //x2=7.22 //y2=7.4
r227 (  93 165 ) resistor r=33.1979 //w=0.187 //l=0.485 //layer=li \
 //thickness=0.1 //x=7.22 //y=7.23 //x2=7.22 //y2=6.745
r228 (  90 149 ) resistor r=2.94794 //w=0.34 //l=0.085 //layer=li \
 //thickness=0.1 //x=6.425 //y=7.4 //x2=6.34 //y2=7.4
r229 (  90 92 ) resistor r=21.6919 //w=0.357 //l=0.605 //layer=li \
 //thickness=0.1 //x=6.425 //y=7.4 //x2=7.03 //y2=7.4
r230 (  89 150 ) resistor r=2.94794 //w=0.34 //l=0.085 //layer=li \
 //thickness=0.1 //x=7.135 //y=7.4 //x2=7.22 //y2=7.4
r231 (  89 92 ) resistor r=3.76471 //w=0.357 //l=0.105 //layer=li \
 //thickness=0.1 //x=7.135 //y=7.4 //x2=7.03 //y2=7.4
r232 (  83 149 ) resistor r=4.11603 //w=0.68 //l=0.17 //layer=li \
 //thickness=0.1 //x=6.34 //y=7.23 //x2=6.34 //y2=7.4
r233 (  83 164 ) resistor r=56.4706 //w=0.187 //l=0.825 //layer=li \
 //thickness=0.1 //x=6.34 //y=7.23 //x2=6.34 //y2=6.405
r234 (  80 148 ) resistor r=5.4201 //w=0.34 //l=0.17 //layer=li \
 //thickness=0.1 //x=5.72 //y=7.4 //x2=5.55 //y2=7.4
r235 (  80 82 ) resistor r=7.17087 //w=0.357 //l=0.2 //layer=li \
 //thickness=0.1 //x=5.72 //y=7.4 //x2=5.92 //y2=7.4
r236 (  79 149 ) resistor r=2.94794 //w=0.34 //l=0.085 //layer=li \
 //thickness=0.1 //x=6.255 //y=7.4 //x2=6.34 //y2=7.4
r237 (  79 82 ) resistor r=12.0112 //w=0.357 //l=0.335 //layer=li \
 //thickness=0.1 //x=6.255 //y=7.4 //x2=5.92 //y2=7.4
r238 (  76 147 ) resistor r=2.94794 //w=0.34 //l=0.085 //layer=li \
 //thickness=0.1 //x=4.855 //y=7.4 //x2=4.77 //y2=7.4
r239 (  75 148 ) resistor r=5.4201 //w=0.34 //l=0.17 //layer=li \
 //thickness=0.1 //x=5.38 //y=7.4 //x2=5.55 //y2=7.4
r240 (  75 76 ) resistor r=18.8235 //w=0.357 //l=0.525 //layer=li \
 //thickness=0.1 //x=5.38 //y=7.4 //x2=4.855 //y2=7.4
r241 (  69 147 ) resistor r=4.11603 //w=0.68 //l=0.17 //layer=li \
 //thickness=0.1 //x=4.77 //y=7.23 //x2=4.77 //y2=7.4
r242 (  69 163 ) resistor r=33.1979 //w=0.187 //l=0.485 //layer=li \
 //thickness=0.1 //x=4.77 //y=7.23 //x2=4.77 //y2=6.745
r243 (  66 146 ) resistor r=2.94794 //w=0.34 //l=0.085 //layer=li \
 //thickness=0.1 //x=3.975 //y=7.4 //x2=3.89 //y2=7.4
r244 (  66 68 ) resistor r=16.6723 //w=0.357 //l=0.465 //layer=li \
 //thickness=0.1 //x=3.975 //y=7.4 //x2=4.44 //y2=7.4
r245 (  65 147 ) resistor r=2.94794 //w=0.34 //l=0.085 //layer=li \
 //thickness=0.1 //x=4.685 //y=7.4 //x2=4.77 //y2=7.4
r246 (  65 68 ) resistor r=8.78431 //w=0.357 //l=0.245 //layer=li \
 //thickness=0.1 //x=4.685 //y=7.4 //x2=4.44 //y2=7.4
r247 (  59 146 ) resistor r=4.11603 //w=0.68 //l=0.17 //layer=li \
 //thickness=0.1 //x=3.89 //y=7.23 //x2=3.89 //y2=7.4
r248 (  59 162 ) resistor r=33.1979 //w=0.187 //l=0.485 //layer=li \
 //thickness=0.1 //x=3.89 //y=7.23 //x2=3.89 //y2=6.745
r249 (  56 145 ) resistor r=2.94794 //w=0.34 //l=0.085 //layer=li \
 //thickness=0.1 //x=3.095 //y=7.4 //x2=3.01 //y2=7.4
r250 (  56 58 ) resistor r=8.42577 //w=0.357 //l=0.235 //layer=li \
 //thickness=0.1 //x=3.095 //y=7.4 //x2=3.33 //y2=7.4
r251 (  55 146 ) resistor r=2.94794 //w=0.34 //l=0.085 //layer=li \
 //thickness=0.1 //x=3.805 //y=7.4 //x2=3.89 //y2=7.4
r252 (  55 58 ) resistor r=17.0308 //w=0.357 //l=0.475 //layer=li \
 //thickness=0.1 //x=3.805 //y=7.4 //x2=3.33 //y2=7.4
r253 (  49 145 ) resistor r=4.11603 //w=0.68 //l=0.17 //layer=li \
 //thickness=0.1 //x=3.01 //y=7.23 //x2=3.01 //y2=7.4
r254 (  49 161 ) resistor r=56.4706 //w=0.187 //l=0.825 //layer=li \
 //thickness=0.1 //x=3.01 //y=7.23 //x2=3.01 //y2=6.405
r255 (  48 144 ) resistor r=5.4201 //w=0.34 //l=0.17 //layer=li \
 //thickness=0.1 //x=2.39 //y=7.4 //x2=2.22 //y2=7.4
r256 (  47 145 ) resistor r=2.94794 //w=0.34 //l=0.085 //layer=li \
 //thickness=0.1 //x=2.925 //y=7.4 //x2=3.01 //y2=7.4
r257 (  47 48 ) resistor r=19.1821 //w=0.357 //l=0.535 //layer=li \
 //thickness=0.1 //x=2.925 //y=7.4 //x2=2.39 //y2=7.4
r258 (  42 143 ) resistor r=2.94794 //w=0.34 //l=0.085 //layer=li \
 //thickness=0.1 //x=1.64 //y=7.4 //x2=1.555 //y2=7.4
r259 (  42 44 ) resistor r=7.52941 //w=0.357 //l=0.21 //layer=li \
 //thickness=0.1 //x=1.64 //y=7.4 //x2=1.85 //y2=7.4
r260 (  41 144 ) resistor r=5.4201 //w=0.34 //l=0.17 //layer=li \
 //thickness=0.1 //x=2.05 //y=7.4 //x2=2.22 //y2=7.4
r261 (  41 44 ) resistor r=7.17087 //w=0.357 //l=0.2 //layer=li \
 //thickness=0.1 //x=2.05 //y=7.4 //x2=1.85 //y2=7.4
r262 (  35 143 ) resistor r=4.11603 //w=0.68 //l=0.17 //layer=li \
 //thickness=0.1 //x=1.555 //y=7.23 //x2=1.555 //y2=7.4
r263 (  35 160 ) resistor r=56.4706 //w=0.187 //l=0.825 //layer=li \
 //thickness=0.1 //x=1.555 //y=7.23 //x2=1.555 //y2=6.405
r264 (  34 142 ) resistor r=2.94794 //w=0.34 //l=0.085 //layer=li \
 //thickness=0.1 //x=0.76 //y=7.4 //x2=0.675 //y2=7.4
r265 (  33 143 ) resistor r=2.94794 //w=0.34 //l=0.085 //layer=li \
 //thickness=0.1 //x=1.47 //y=7.4 //x2=1.555 //y2=7.4
r266 (  33 34 ) resistor r=25.4566 //w=0.357 //l=0.71 //layer=li \
 //thickness=0.1 //x=1.47 //y=7.4 //x2=0.76 //y2=7.4
r267 (  27 142 ) resistor r=4.11603 //w=0.68 //l=0.17 //layer=li \
 //thickness=0.1 //x=0.675 //y=7.23 //x2=0.675 //y2=7.4
r268 (  27 159 ) resistor r=56.4706 //w=0.187 //l=0.825 //layer=li \
 //thickness=0.1 //x=0.675 //y=7.23 //x2=0.675 //y2=6.405
r269 (  21 158 ) resistor r=4.65 //w=0.17 //l=0.34 //layer=mcon //count=2 \
 //x=11.47 //y=7.4 //x2=11.47 //y2=7.4
r270 (  19 130 ) resistor r=3.1 //w=0.17 //l=0.51 //layer=mcon //count=3 \
 //x=10.73 //y=7.4 //x2=10.73 //y2=7.4
r271 (  19 21 ) resistor r=0.307309 //w=0.301 //l=0.74 //layer=m1 \
 //thickness=0.36 //x=10.73 //y=7.4 //x2=11.47 //y2=7.4
r272 (  17 155 ) resistor r=3.1 //w=0.17 //l=0.51 //layer=mcon //count=3 \
 //x=9.62 //y=7.4 //x2=9.62 //y2=7.4
r273 (  17 19 ) resistor r=0.460963 //w=0.301 //l=1.11 //layer=m1 \
 //thickness=0.36 //x=9.62 //y=7.4 //x2=10.73 //y2=7.4
r274 (  15 152 ) resistor r=3.1 //w=0.17 //l=0.51 //layer=mcon //count=3 \
 //x=8.14 //y=7.4 //x2=8.14 //y2=7.4
r275 (  15 17 ) resistor r=0.614618 //w=0.301 //l=1.48 //layer=m1 \
 //thickness=0.36 //x=8.14 //y=7.4 //x2=9.62 //y2=7.4
r276 (  13 92 ) resistor r=3.1 //w=0.17 //l=0.51 //layer=mcon //count=3 \
 //x=7.03 //y=7.4 //x2=7.03 //y2=7.4
r277 (  13 15 ) resistor r=0.460963 //w=0.301 //l=1.11 //layer=m1 \
 //thickness=0.36 //x=7.03 //y=7.4 //x2=8.14 //y2=7.4
r278 (  11 82 ) resistor r=3.1 //w=0.17 //l=0.51 //layer=mcon //count=3 \
 //x=5.92 //y=7.4 //x2=5.92 //y2=7.4
r279 (  11 13 ) resistor r=0.460963 //w=0.301 //l=1.11 //layer=m1 \
 //thickness=0.36 //x=5.92 //y=7.4 //x2=7.03 //y2=7.4
r280 (  9 68 ) resistor r=3.1 //w=0.17 //l=0.51 //layer=mcon //count=3 \
 //x=4.44 //y=7.4 //x2=4.44 //y2=7.4
r281 (  9 11 ) resistor r=0.614618 //w=0.301 //l=1.48 //layer=m1 \
 //thickness=0.36 //x=4.44 //y=7.4 //x2=5.92 //y2=7.4
r282 (  7 58 ) resistor r=3.1 //w=0.17 //l=0.51 //layer=mcon //count=3 \
 //x=3.33 //y=7.4 //x2=3.33 //y2=7.4
r283 (  7 9 ) resistor r=0.460963 //w=0.301 //l=1.11 //layer=m1 \
 //thickness=0.36 //x=3.33 //y=7.4 //x2=4.44 //y2=7.4
r284 (  5 44 ) resistor r=3.1 //w=0.17 //l=0.51 //layer=mcon //count=3 \
 //x=1.85 //y=7.4 //x2=1.85 //y2=7.4
r285 (  5 7 ) resistor r=0.614618 //w=0.301 //l=1.48 //layer=m1 \
 //thickness=0.36 //x=1.85 //y=7.4 //x2=3.33 //y2=7.4
r286 (  2 142 ) resistor r=3.1 //w=0.17 //l=0.51 //layer=mcon //count=3 \
 //x=0.74 //y=7.4 //x2=0.74 //y2=7.4
r287 (  2 5 ) resistor r=0.460963 //w=0.301 //l=1.11 //layer=m1 \
 //thickness=0.36 //x=0.74 //y=7.4 //x2=1.85 //y2=7.4
ends PM_MUX2X1_PCELL\%noxref_2

subckt PM_MUX2X1_PCELL\%noxref_3 ( 1 2 8 16 23 24 25 26 27 28 29 30 31 32 36 \
 37 38 40 46 47 48 49 50 51 55 57 60 61 66 80 )
c127 ( 80 0 ) capacitor c=0.0667949f //x=3.33 //y=4.7
c128 ( 66 0 ) capacitor c=0.051138f //x=0.74 //y=2.085
c129 ( 61 0 ) capacitor c=0.0318948f //x=3.665 //y=1.21
c130 ( 60 0 ) capacitor c=0.0187384f //x=3.665 //y=0.865
c131 ( 57 0 ) capacitor c=0.0141798f //x=3.51 //y=1.365
c132 ( 55 0 ) capacitor c=0.0149844f //x=3.51 //y=0.71
c133 ( 51 0 ) capacitor c=0.0819722f //x=3.135 //y=1.915
c134 ( 50 0 ) capacitor c=0.0229722f //x=3.135 //y=1.52
c135 ( 49 0 ) capacitor c=0.0234352f //x=3.135 //y=1.21
c136 ( 48 0 ) capacitor c=0.0199343f //x=3.135 //y=0.865
c137 ( 47 0 ) capacitor c=0.0435629f //x=1.38 //y=1.255
c138 ( 46 0 ) capacitor c=0.0200386f //x=1.38 //y=0.91
c139 ( 40 0 ) capacitor c=0.0152946f //x=1.225 //y=1.41
c140 ( 38 0 ) capacitor c=0.0157804f //x=1.225 //y=0.755
c141 ( 37 0 ) capacitor c=0.0524167f //x=0.97 //y=4.79
c142 ( 36 0 ) capacitor c=0.0322983f //x=1.26 //y=4.79
c143 ( 32 0 ) capacitor c=0.0290017f //x=0.85 //y=1.92
c144 ( 31 0 ) capacitor c=0.0250027f //x=0.85 //y=1.565
c145 ( 30 0 ) capacitor c=0.0234316f //x=0.85 //y=1.255
c146 ( 29 0 ) capacitor c=0.0200596f //x=0.85 //y=0.91
c147 ( 28 0 ) capacitor c=0.110275f //x=3.67 //y=6.02
c148 ( 27 0 ) capacitor c=0.154305f //x=3.23 //y=6.02
c149 ( 26 0 ) capacitor c=0.154218f //x=1.335 //y=6.02
c150 ( 25 0 ) capacitor c=0.154243f //x=0.895 //y=6.02
c151 ( 16 0 ) capacitor c=0.0971096f //x=3.33 //y=2.08
c152 ( 8 0 ) capacitor c=0.110891f //x=0.74 //y=2.085
c153 ( 2 0 ) capacitor c=0.0133976f //x=0.855 //y=2.96
c154 ( 1 0 ) capacitor c=0.0813108f //x=3.215 //y=2.96
r155 (  78 80 ) resistor r=20.6867 //w=0.233 //l=0.1 //layer=ply \
 //thickness=0.18 //x=3.23 //y=4.7 //x2=3.33 //y2=4.7
r156 (  66 67 ) resistor r=17.5563 //w=0.302 //l=0.11 //layer=ply \
 //thickness=0.18 //x=0.74 //y=2.085 //x2=0.85 //y2=2.085
r157 (  62 80 ) resistor r=70.3348 //w=0.233 //l=0.414367 //layer=ply \
 //thickness=0.18 //x=3.67 //y=4.865 //x2=3.33 //y2=4.7
r158 (  61 82 ) resistor r=45.1352 //w=0.168 //l=0.173853 //layer=ply \
 //thickness=0.18 //x=3.665 //y=1.21 //x2=3.625 //y2=1.365
r159 (  60 81 ) resistor r=45.1352 //w=0.168 //l=0.173853 //layer=ply \
 //thickness=0.18 //x=3.665 //y=0.865 //x2=3.625 //y2=0.71
r160 (  60 61 ) resistor r=176.904 //w=0.094 //l=0.345 //layer=ply \
 //thickness=0.18 //x=3.665 //y=0.865 //x2=3.665 //y2=1.21
r161 (  58 77 ) resistor r=10.701 //w=0.21 //l=0.115 //layer=ply \
 //thickness=0.18 //x=3.29 //y=1.365 //x2=3.175 //y2=1.365
r162 (  57 82 ) resistor r=5.52526 //w=0.168 //l=0.115 //layer=ply \
 //thickness=0.18 //x=3.51 //y=1.365 //x2=3.625 //y2=1.365
r163 (  56 76 ) resistor r=5.52526 //w=0.168 //l=0.115 //layer=ply \
 //thickness=0.18 //x=3.29 //y=0.71 //x2=3.175 //y2=0.71
r164 (  55 81 ) resistor r=5.52526 //w=0.168 //l=0.115 //layer=ply \
 //thickness=0.18 //x=3.51 //y=0.71 //x2=3.625 //y2=0.71
r165 (  55 56 ) resistor r=112.809 //w=0.094 //l=0.22 //layer=ply \
 //thickness=0.18 //x=3.51 //y=0.71 //x2=3.29 //y2=0.71
r166 (  52 78 ) resistor r=13.0941 //w=0.233 //l=0.165 //layer=ply \
 //thickness=0.18 //x=3.23 //y=4.865 //x2=3.23 //y2=4.7
r167 (  51 75 ) resistor r=34.8111 //w=0.27 //l=0.264953 //layer=ply \
 //thickness=0.18 //x=3.135 //y=1.915 //x2=3.33 //y2=2.08
r168 (  50 77 ) resistor r=39.5823 //w=0.21 //l=0.173853 //layer=ply \
 //thickness=0.18 //x=3.135 //y=1.52 //x2=3.175 //y2=1.365
r169 (  50 51 ) resistor r=202.543 //w=0.094 //l=0.395 //layer=ply \
 //thickness=0.18 //x=3.135 //y=1.52 //x2=3.135 //y2=1.915
r170 (  49 77 ) resistor r=39.5823 //w=0.21 //l=0.173853 //layer=ply \
 //thickness=0.18 //x=3.135 //y=1.21 //x2=3.175 //y2=1.365
r171 (  48 76 ) resistor r=45.1352 //w=0.168 //l=0.173853 //layer=ply \
 //thickness=0.18 //x=3.135 //y=0.865 //x2=3.175 //y2=0.71
r172 (  48 49 ) resistor r=176.904 //w=0.094 //l=0.345 //layer=ply \
 //thickness=0.18 //x=3.135 //y=0.865 //x2=3.135 //y2=1.21
r173 (  47 73 ) resistor r=45.1352 //w=0.168 //l=0.173853 //layer=ply \
 //thickness=0.18 //x=1.38 //y=1.255 //x2=1.34 //y2=1.41
r174 (  46 72 ) resistor r=45.1352 //w=0.168 //l=0.173853 //layer=ply \
 //thickness=0.18 //x=1.38 //y=0.91 //x2=1.34 //y2=0.755
r175 (  46 47 ) resistor r=176.904 //w=0.094 //l=0.345 //layer=ply \
 //thickness=0.18 //x=1.38 //y=0.91 //x2=1.38 //y2=1.255
r176 (  41 71 ) resistor r=10.701 //w=0.21 //l=0.115 //layer=ply \
 //thickness=0.18 //x=1.005 //y=1.41 //x2=0.89 //y2=1.41
r177 (  40 73 ) resistor r=5.52526 //w=0.168 //l=0.115 //layer=ply \
 //thickness=0.18 //x=1.225 //y=1.41 //x2=1.34 //y2=1.41
r178 (  39 70 ) resistor r=5.52526 //w=0.168 //l=0.115 //layer=ply \
 //thickness=0.18 //x=1.005 //y=0.755 //x2=0.89 //y2=0.755
r179 (  38 72 ) resistor r=5.52526 //w=0.168 //l=0.115 //layer=ply \
 //thickness=0.18 //x=1.225 //y=0.755 //x2=1.34 //y2=0.755
r180 (  38 39 ) resistor r=112.809 //w=0.094 //l=0.22 //layer=ply \
 //thickness=0.18 //x=1.225 //y=0.755 //x2=1.005 //y2=0.755
r181 (  36 43 ) resistor r=26.9307 //w=0.15 //l=0.106066 //layer=ply \
 //thickness=0.18 //x=1.26 //y=4.79 //x2=1.335 //y2=4.865
r182 (  36 37 ) resistor r=148.702 //w=0.094 //l=0.29 //layer=ply \
 //thickness=0.18 //x=1.26 //y=4.79 //x2=0.97 //y2=4.79
r183 (  33 37 ) resistor r=23.403 //w=0.284 //l=0.106066 //layer=ply \
 //thickness=0.18 //x=0.895 //y=4.865 //x2=0.97 //y2=4.79
r184 (  33 69 ) resistor r=26.3063 //w=0.284 //l=0.229783 //layer=ply \
 //thickness=0.18 //x=0.895 //y=4.865 //x2=0.74 //y2=4.7
r185 (  32 67 ) resistor r=19.1248 //w=0.302 //l=0.165 //layer=ply \
 //thickness=0.18 //x=0.85 //y=1.92 //x2=0.85 //y2=2.085
r186 (  31 71 ) resistor r=39.5823 //w=0.21 //l=0.173853 //layer=ply \
 //thickness=0.18 //x=0.85 //y=1.565 //x2=0.89 //y2=1.41
r187 (  31 32 ) resistor r=182.032 //w=0.094 //l=0.355 //layer=ply \
 //thickness=0.18 //x=0.85 //y=1.565 //x2=0.85 //y2=1.92
r188 (  30 71 ) resistor r=39.5823 //w=0.21 //l=0.173853 //layer=ply \
 //thickness=0.18 //x=0.85 //y=1.255 //x2=0.89 //y2=1.41
r189 (  29 70 ) resistor r=45.1352 //w=0.168 //l=0.173853 //layer=ply \
 //thickness=0.18 //x=0.85 //y=0.91 //x2=0.89 //y2=0.755
r190 (  29 30 ) resistor r=176.904 //w=0.094 //l=0.345 //layer=ply \
 //thickness=0.18 //x=0.85 //y=0.91 //x2=0.85 //y2=1.255
r191 (  28 62 ) resistor r=592.245 //w=0.094 //l=1.155 //layer=ply \
 //thickness=0.18 //x=3.67 //y=6.02 //x2=3.67 //y2=4.865
r192 (  27 52 ) resistor r=592.245 //w=0.094 //l=1.155 //layer=ply \
 //thickness=0.18 //x=3.23 //y=6.02 //x2=3.23 //y2=4.865
r193 (  26 43 ) resistor r=592.245 //w=0.094 //l=1.155 //layer=ply \
 //thickness=0.18 //x=1.335 //y=6.02 //x2=1.335 //y2=4.865
r194 (  25 33 ) resistor r=592.245 //w=0.094 //l=1.155 //layer=ply \
 //thickness=0.18 //x=0.895 //y=6.02 //x2=0.895 //y2=4.865
r195 (  24 57 ) resistor r=56.4043 //w=0.094 //l=0.11 //layer=ply \