// File: or3x1_pcell.spi.pex
// Created: Tue Oct 15 16:00:02 2024
// Program "Calibre xRC"
// Version "v2023.2_27.15"
// Nominal Temperature: 30C
// Circuit Temperature: 30C
// 
simulator lang=spectre
subckt PM_OR3X1_PCELL\%noxref_1 ( 13 25 29 37 41 49 53 61 67 75 79 91 118 125 \
 132 133 )
c88 ( 133 0 ) capacitor c=0.0602217f //x=3.825 //y=0.37
c89 ( 132 0 ) capacitor c=0.0960251f //x=-0.92 //y=0.365
c90 ( 125 0 ) capacitor c=0.23428f //x=4.93 //y=0
c91 ( 118 0 ) capacitor c=0.117067f //x=3.33 //y=0
c92 ( 91 0 ) capacitor c=0.203672f //x=-0.785 //y=0
c93 ( 82 0 ) capacitor c=0.00587411f //x=4.93 //y=0.45
c94 ( 79 0 ) capacitor c=0.00542558f //x=4.845 //y=0.535
c95 ( 78 0 ) capacitor c=0.00479856f //x=4.445 //y=0.45
c96 ( 75 0 ) capacitor c=0.0068422f //x=4.36 //y=0.535
c97 ( 70 0 ) capacitor c=0.00592191f //x=3.96 //y=0.45
c98 ( 67 0 ) capacitor c=0.0164879f //x=3.875 //y=0
c99 ( 62 0 ) capacitor c=0.095941f //x=2.21 //y=0
c100 ( 61 0 ) capacitor c=0.0440294f //x=3.16 //y=0
c101 ( 56 0 ) capacitor c=0.00803396f //x=2.125 //y=0.445
c102 ( 53 0 ) capacitor c=0.00510317f //x=2.04 //y=0.53
c103 ( 52 0 ) capacitor c=0.00468234f //x=1.64 //y=0.445
c104 ( 49 0 ) capacitor c=0.00514697f //x=1.555 //y=0.53
c105 ( 44 0 ) capacitor c=0.00468234f //x=1.155 //y=0.445
c106 ( 41 0 ) capacitor c=0.00556167f //x=1.07 //y=0.53
c107 ( 40 0 ) capacitor c=0.00468234f //x=0.67 //y=0.445
c108 ( 37 0 ) capacitor c=0.00556167f //x=0.585 //y=0.53
c109 ( 32 0 ) capacitor c=0.00468234f //x=0.185 //y=0.445
c110 ( 29 0 ) capacitor c=0.00556167f //x=0.1 //y=0.53
c111 ( 28 0 ) capacitor c=0.00468234f //x=-0.3 //y=0.445
c112 ( 25 0 ) capacitor c=0.00709092f //x=-0.385 //y=0.53
c113 ( 20 0 ) capacitor c=0.00609805f //x=-0.785 //y=0.445
c114 ( 13 0 ) capacitor c=0.27721f //x=4.81 //y=0
r115 (  124 125 ) resistor r=4.30252 //w=0.357 //l=0.12 //layer=li \
 //thickness=0.1 //x=4.81 //y=0 //x2=4.93 //y2=0
r116 (  122 124 ) resistor r=13.0868 //w=0.357 //l=0.365 //layer=li \
 //thickness=0.1 //x=4.445 //y=0 //x2=4.81 //y2=0
r117 (  121 122 ) resistor r=13.4454 //w=0.357 //l=0.375 //layer=li \
 //thickness=0.1 //x=4.07 //y=0 //x2=4.445 //y2=0
r118 (  119 121 ) resistor r=3.94398 //w=0.357 //l=0.11 //layer=li \
 //thickness=0.1 //x=3.96 //y=0 //x2=4.07 //y2=0
r119 (  102 103 ) resistor r=17.3894 //w=0.357 //l=0.485 //layer=li \
 //thickness=0.1 //x=1.64 //y=0 //x2=2.125 //y2=0
r120 (  101 102 ) resistor r=5.73669 //w=0.357 //l=0.16 //layer=li \
 //thickness=0.1 //x=1.48 //y=0 //x2=1.64 //y2=0
r121 (  99 101 ) resistor r=11.6527 //w=0.357 //l=0.325 //layer=li \
 //thickness=0.1 //x=1.155 //y=0 //x2=1.48 //y2=0
r122 (  98 99 ) resistor r=17.3894 //w=0.357 //l=0.485 //layer=li \
 //thickness=0.1 //x=0.67 //y=0 //x2=1.155 //y2=0
r123 (  97 98 ) resistor r=10.7563 //w=0.357 //l=0.3 //layer=li \
 //thickness=0.1 //x=0.37 //y=0 //x2=0.67 //y2=0
r124 (  95 97 ) resistor r=6.63305 //w=0.357 //l=0.185 //layer=li \
 //thickness=0.1 //x=0.185 //y=0 //x2=0.37 //y2=0
r125 (  94 95 ) resistor r=17.3894 //w=0.357 //l=0.485 //layer=li \
 //thickness=0.1 //x=-0.3 //y=0 //x2=0.185 //y2=0
r126 (  93 94 ) resistor r=15.7401 //w=0.357 //l=0.439 //layer=li \
 //thickness=0.1 //x=-0.739 //y=0 //x2=-0.3 //y2=0
r127 (  91 93 ) resistor r=1.6493 //w=0.357 //l=0.046 //layer=li \
 //thickness=0.1 //x=-0.785 //y=0 //x2=-0.739 //y2=0
r128 (  83 133 ) resistor r=5.4201 //w=0.17 //l=0.085 //layer=li \
 //thickness=0.1 //x=4.93 //y=0.62 //x2=4.93 //y2=0.535
r129 (  83 133 ) resistor r=41.4118 //w=0.187 //l=0.605 //layer=li \
 //thickness=0.1 //x=4.93 //y=0.62 //x2=4.93 //y2=1.225
r130 (  82 133 ) resistor r=5.4201 //w=0.17 //l=0.085 //layer=li \
 //thickness=0.1 //x=4.93 //y=0.45 //x2=4.93 //y2=0.535
r131 (  81 125 ) resistor r=5.03728 //w=0.34 //l=0.17 //layer=li \
 //thickness=0.1 //x=4.93 //y=0.17 //x2=4.93 //y2=0
r132 (  81 82 ) resistor r=19.1658 //w=0.187 //l=0.28 //layer=li \
 //thickness=0.1 //x=4.93 //y=0.17 //x2=4.93 //y2=0.45
r133 (  80 133 ) resistor r=5.4201 //w=0.17 //l=0.085 //layer=li \
 //thickness=0.1 //x=4.53 //y=0.535 //x2=4.445 //y2=0.535
r134 (  79 133 ) resistor r=1.40859 //w=0.34 //l=0.085 //layer=li \
 //thickness=0.1 //x=4.845 //y=0.535 //x2=4.93 //y2=0.535
r135 (  79 80 ) resistor r=21.5615 //w=0.187 //l=0.315 //layer=li \
 //thickness=0.1 //x=4.845 //y=0.535 //x2=4.53 //y2=0.535
r136 (  78 133 ) resistor r=1.40859 //w=0.34 //l=0.085 //layer=li \
 //thickness=0.1 //x=4.445 //y=0.45 //x2=4.445 //y2=0.535
r137 (  77 122 ) resistor r=5.03728 //w=0.34 //l=0.17 //layer=li \
 //thickness=0.1 //x=4.445 //y=0.17 //x2=4.445 //y2=0
r138 (  77 78 ) resistor r=19.1658 //w=0.187 //l=0.28 //layer=li \
 //thickness=0.1 //x=4.445 //y=0.17 //x2=4.445 //y2=0.45
r139 (  76 133 ) resistor r=1.40859 //w=0.34 //l=0.085 //layer=li \
 //thickness=0.1 //x=4.045 //y=0.535 //x2=3.96 //y2=0.535
r140 (  75 133 ) resistor r=5.4201 //w=0.17 //l=0.085 //layer=li \
 //thickness=0.1 //x=4.36 //y=0.535 //x2=4.445 //y2=0.535
r141 (  75 76 ) resistor r=21.5615 //w=0.187 //l=0.315 //layer=li \
 //thickness=0.1 //x=4.36 //y=0.535 //x2=4.045 //y2=0.535
r142 (  71 133 ) resistor r=5.4201 //w=0.17 //l=0.085 //layer=li \
 //thickness=0.1 //x=3.96 //y=0.62 //x2=3.96 //y2=0.535
r143 (  71 133 ) resistor r=41.4118 //w=0.187 //l=0.605 //layer=li \
 //thickness=0.1 //x=3.96 //y=0.62 //x2=3.96 //y2=1.225
r144 (  70 133 ) resistor r=5.4201 //w=0.17 //l=0.085 //layer=li \
 //thickness=0.1 //x=3.96 //y=0.45 //x2=3.96 //y2=0.535
r145 (  69 119 ) resistor r=5.03728 //w=0.34 //l=0.17 //layer=li \
 //thickness=0.1 //x=3.96 //y=0.17 //x2=3.96 //y2=0
r146 (  69 70 ) resistor r=19.1658 //w=0.187 //l=0.28 //layer=li \
 //thickness=0.1 //x=3.96 //y=0.17 //x2=3.96 //y2=0.45
r147 (  68 118 ) resistor r=5.4201 //w=0.34 //l=0.17 //layer=li \
 //thickness=0.1 //x=3.5 //y=0 //x2=3.33 //y2=0
r148 (  67 119 ) resistor r=3.04762 //w=0.357 //l=0.085 //layer=li \
 //thickness=0.1 //x=3.875 //y=0 //x2=3.96 //y2=0
r149 (  67 68 ) resistor r=13.4454 //w=0.357 //l=0.375 //layer=li \
 //thickness=0.1 //x=3.875 //y=0 //x2=3.5 //y2=0
r150 (  62 103 ) resistor r=3.04762 //w=0.357 //l=0.085 //layer=li \
 //thickness=0.1 //x=2.21 //y=0 //x2=2.125 //y2=0
r151 (  62 64 ) resistor r=13.6247 //w=0.357 //l=0.38 //layer=li \
 //thickness=0.1 //x=2.21 //y=0 //x2=2.59 //y2=0
r152 (  61 118 ) resistor r=5.4201 //w=0.34 //l=0.17 //layer=li \
 //thickness=0.1 //x=3.16 //y=0 //x2=3.33 //y2=0
r153 (  61 64 ) resistor r=20.437 //w=0.357 //l=0.57 //layer=li \
 //thickness=0.1 //x=3.16 //y=0 //x2=2.59 //y2=0
r154 (  57 132 ) resistor r=5.4201 //w=0.17 //l=0.085 //layer=li \
 //thickness=0.1 //x=2.125 //y=0.615 //x2=2.125 //y2=0.53
r155 (  57 132 ) resistor r=18.139 //w=0.187 //l=0.265 //layer=li \
 //thickness=0.1 //x=2.125 //y=0.615 //x2=2.125 //y2=0.88
r156 (  56 132 ) resistor r=5.4201 //w=0.17 //l=0.085 //layer=li \
 //thickness=0.1 //x=2.125 //y=0.445 //x2=2.125 //y2=0.53
r157 (  55 103 ) resistor r=5.03728 //w=0.34 //l=0.17 //layer=li \
 //thickness=0.1 //x=2.125 //y=0.17 //x2=2.125 //y2=0
r158 (  55 56 ) resistor r=18.8235 //w=0.187 //l=0.275 //layer=li \
 //thickness=0.1 //x=2.125 //y=0.17 //x2=2.125 //y2=0.445
r159 (  54 132 ) resistor r=5.4201 //w=0.17 //l=0.085 //layer=li \
 //thickness=0.1 //x=1.725 //y=0.53 //x2=1.64 //y2=0.53
r160 (  53 132 ) resistor r=1.40859 //w=0.34 //l=0.085 //layer=li \
 //thickness=0.1 //x=2.04 //y=0.53 //x2=2.125 //y2=0.53
r161 (  53 54 ) resistor r=21.5615 //w=0.187 //l=0.315 //layer=li \
 //thickness=0.1 //x=2.04 //y=0.53 //x2=1.725 //y2=0.53
r162 (  52 132 ) resistor r=1.40859 //w=0.34 //l=0.085 //layer=li \
 //thickness=0.1 //x=1.64 //y=0.445 //x2=1.64 //y2=0.53
r163 (  51 102 ) resistor r=5.03728 //w=0.34 //l=0.17 //layer=li \
 //thickness=0.1 //x=1.64 //y=0.17 //x2=1.64 //y2=0
r164 (  51 52 ) resistor r=18.8235 //w=0.187 //l=0.275 //layer=li \
 //thickness=0.1 //x=1.64 //y=0.17 //x2=1.64 //y2=0.445
r165 (  50 132 ) resistor r=6.4 //w=0.17 //l=0.085 //layer=li //thickness=0.1 \
 //x=1.24 //y=0.53 //x2=1.155 //y2=0.53
r166 (  49 132 ) resistor r=5.4201 //w=0.17 //l=0.085 //layer=li \
 //thickness=0.1 //x=1.555 //y=0.53 //x2=1.64 //y2=0.53
r167 (  49 50 ) resistor r=21.5615 //w=0.187 //l=0.315 //layer=li \
 //thickness=0.1 //x=1.555 //y=0.53 //x2=1.24 //y2=0.53
r168 (  45 132 ) resistor r=6.4 //w=0.17 //l=0.085 //layer=li //thickness=0.1 \
 //x=1.155 //y=0.615 //x2=1.155 //y2=0.53
r169 (  45 132 ) resistor r=18.139 //w=0.187 //l=0.265 //layer=li \
 //thickness=0.1 //x=1.155 //y=0.615 //x2=1.155 //y2=0.88
r170 (  44 132 ) resistor r=6.4 //w=0.17 //l=0.085 //layer=li //thickness=0.1 \
 //x=1.155 //y=0.445 //x2=1.155 //y2=0.53
r171 (  43 99 ) resistor r=5.03728 //w=0.34 //l=0.17 //layer=li \
 //thickness=0.1 //x=1.155 //y=0.17 //x2=1.155 //y2=0
r172 (  43 44 ) resistor r=18.8235 //w=0.187 //l=0.275 //layer=li \
 //thickness=0.1 //x=1.155 //y=0.17 //x2=1.155 //y2=0.445
r173 (  42 132 ) resistor r=5.4201 //w=0.17 //l=0.085 //layer=li \
 //thickness=0.1 //x=0.755 //y=0.53 //x2=0.67 //y2=0.53
r174 (  41 132 ) resistor r=6.4 //w=0.17 //l=0.085 //layer=li //thickness=0.1 \
 //x=1.07 //y=0.53 //x2=1.155 //y2=0.53
r175 (  41 42 ) resistor r=21.5615 //w=0.187 //l=0.315 //layer=li \
 //thickness=0.1 //x=1.07 //y=0.53 //x2=0.755 //y2=0.53
r176 (  40 132 ) resistor r=1.40859 //w=0.34 //l=0.085 //layer=li \
 //thickness=0.1 //x=0.67 //y=0.445 //x2=0.67 //y2=0.53
r177 (  39 98 ) resistor r=5.03728 //w=0.34 //l=0.17 //layer=li \
 //thickness=0.1 //x=0.67 //y=0.17 //x2=0.67 //y2=0
r178 (  39 40 ) resistor r=18.8235 //w=0.187 //l=0.275 //layer=li \
 //thickness=0.1 //x=0.67 //y=0.17 //x2=0.67 //y2=0.445
r179 (  38 132 ) resistor r=6.4 //w=0.17 //l=0.085 //layer=li //thickness=0.1 \
 //x=0.27 //y=0.53 //x2=0.185 //y2=0.53
r180 (  37 132 ) resistor r=5.4201 //w=0.17 //l=0.085 //layer=li \
 //thickness=0.1 //x=0.585 //y=0.53 //x2=0.67 //y2=0.53
r181 (  37 38 ) resistor r=21.5615 //w=0.187 //l=0.315 //layer=li \
 //thickness=0.1 //x=0.585 //y=0.53 //x2=0.27 //y2=0.53
r182 (  33 132 ) resistor r=6.4 //w=0.17 //l=0.085 //layer=li //thickness=0.1 \
 //x=0.185 //y=0.615 //x2=0.185 //y2=0.53
r183 (  33 132 ) resistor r=18.139 //w=0.187 //l=0.265 //layer=li \
 //thickness=0.1 //x=0.185 //y=0.615 //x2=0.185 //y2=0.88
r184 (  32 132 ) resistor r=6.4 //w=0.17 //l=0.085 //layer=li //thickness=0.1 \
 //x=0.185 //y=0.445 //x2=0.185 //y2=0.53
r185 (  31 95 ) resistor r=5.03728 //w=0.34 //l=0.17 //layer=li \
 //thickness=0.1 //x=0.185 //y=0.17 //x2=0.185 //y2=0
r186 (  31 32 ) resistor r=18.8235 //w=0.187 //l=0.275 //layer=li \
 //thickness=0.1 //x=0.185 //y=0.17 //x2=0.185 //y2=0.445
r187 (  30 132 ) resistor r=5.4201 //w=0.17 //l=0.085 //layer=li \
 //thickness=0.1 //x=-0.215 //y=0.53 //x2=-0.3 //y2=0.53
r188 (  29 132 ) resistor r=6.4 //w=0.17 //l=0.085 //layer=li //thickness=0.1 \
 //x=0.1 //y=0.53 //x2=0.185 //y2=0.53
r189 (  29 30 ) resistor r=21.5615 //w=0.187 //l=0.315 //layer=li \
 //thickness=0.1 //x=0.1 //y=0.53 //x2=-0.215 //y2=0.53
r190 (  28 132 ) resistor r=1.40859 //w=0.34 //l=0.085 //layer=li \
 //thickness=0.1 //x=-0.3 //y=0.445 //x2=-0.3 //y2=0.53
r191 (  27 94 ) resistor r=5.03728 //w=0.34 //l=0.17 //layer=li \
 //thickness=0.1 //x=-0.3 //y=0.17 //x2=-0.3 //y2=0
r192 (  27 28 ) resistor r=18.8235 //w=0.187 //l=0.275 //layer=li \
 //thickness=0.1 //x=-0.3 //y=0.17 //x2=-0.3 //y2=0.445
r193 (  26 132 ) resistor r=1.40859 //w=0.34 //l=0.085 //layer=li \
 //thickness=0.1 //x=-0.7 //y=0.53 //x2=-0.785 //y2=0.53
r194 (  25 132 ) resistor r=5.4201 //w=0.17 //l=0.085 //layer=li \
 //thickness=0.1 //x=-0.385 //y=0.53 //x2=-0.3 //y2=0.53
r195 (  25 26 ) resistor r=21.5615 //w=0.187 //l=0.315 //layer=li \
 //thickness=0.1 //x=-0.385 //y=0.53 //x2=-0.7 //y2=0.53
r196 (  21 132 ) resistor r=5.4201 //w=0.17 //l=0.085 //layer=li \
 //thickness=0.1 //x=-0.785 //y=0.615 //x2=-0.785 //y2=0.53
r197 (  21 132 ) resistor r=41.4118 //w=0.187 //l=0.605 //layer=li \
 //thickness=0.1 //x=-0.785 //y=0.615 //x2=-0.785 //y2=1.22
r198 (  20 132 ) resistor r=5.4201 //w=0.17 //l=0.085 //layer=li \
 //thickness=0.1 //x=-0.785 //y=0.445 //x2=-0.785 //y2=0.53
r199 (  19 91 ) resistor r=5.03728 //w=0.34 //l=0.17 //layer=li \
 //thickness=0.1 //x=-0.785 //y=0.17 //x2=-0.785 //y2=0
r200 (  19 20 ) resistor r=18.8235 //w=0.187 //l=0.275 //layer=li \
 //thickness=0.1 //x=-0.785 //y=0.17 //x2=-0.785 //y2=0.445
r201 (  13 124 ) resistor r=4.65 //w=0.17 //l=0.34 //layer=mcon //count=2 \
 //x=4.81 //y=0 //x2=4.81 //y2=0
r202 (  11 121 ) resistor r=3.1 //w=0.17 //l=0.51 //layer=mcon //count=3 \
 //x=4.07 //y=0 //x2=4.07 //y2=0
r203 (  11 13 ) resistor r=0.307309 //w=0.301 //l=0.74 //layer=m1 \
 //thickness=0.36 //x=4.07 //y=0 //x2=4.81 //y2=0
r204 (  9 64 ) resistor r=3.1 //w=0.17 //l=0.51 //layer=mcon //count=3 \
 //x=2.59 //y=0 //x2=2.59 //y2=0
r205 (  9 11 ) resistor r=0.614618 //w=0.301 //l=1.48 //layer=m1 \
 //thickness=0.36 //x=2.59 //y=0 //x2=4.07 //y2=0
r206 (  7 101 ) resistor r=3.1 //w=0.17 //l=0.51 //layer=mcon //count=3 \
 //x=1.48 //y=0 //x2=1.48 //y2=0
r207 (  7 9 ) resistor r=0.460963 //w=0.301 //l=1.11 //layer=m1 \
 //thickness=0.36 //x=1.48 //y=0 //x2=2.59 //y2=0
r208 (  5 97 ) resistor r=3.1 //w=0.17 //l=0.51 //layer=mcon //count=3 \
 //x=0.37 //y=0 //x2=0.37 //y2=0
r209 (  5 7 ) resistor r=0.460963 //w=0.301 //l=1.11 //layer=m1 \
 //thickness=0.36 //x=0.37 //y=0 //x2=1.48 //y2=0
r210 (  2 93 ) resistor r=3.1 //w=0.17 //l=0.51 //layer=mcon //count=3 \
 //x=-0.739 //y=0 //x2=-0.739 //y2=0
r211 (  2 5 ) resistor r=0.460548 //w=0.301 //l=1.109 //layer=m1 \
 //thickness=0.36 //x=-0.739 //y=0 //x2=0.37 //y2=0
ends PM_OR3X1_PCELL\%noxref_1

subckt PM_OR3X1_PCELL\%noxref_2 ( 13 17 20 27 45 58 62 63 64 65 )
c81 ( 65 0 ) capacitor c=0.0451925f //x=4.74 //y=5.02
c82 ( 64 0 ) capacitor c=0.0421766f //x=3.87 //y=5.02
c83 ( 63 0 ) capacitor c=0.0267864f //x=-0.395 //y=5.025
c84 ( 62 0 ) capacitor c=0.234796f //x=4.81 //y=7.4
c85 ( 60 0 ) capacitor c=0.00591168f //x=4.07 //y=7.4
c86 ( 58 0 ) capacitor c=0.114827f //x=3.33 //y=7.4
c87 ( 57 0 ) capacitor c=0.00591168f //x=-0.25 //y=7.4
c88 ( 45 0 ) capacitor c=0.0287207f //x=4.8 //y=7.4
c89 ( 37 0 ) capacitor c=0.0216067f //x=3.92 //y=7.4
c90 ( 27 0 ) capacitor c=0.137035f //x=3.16 //y=7.4
c91 ( 20 0 ) capacitor c=0.211583f //x=-0.739 //y=7.4
c92 ( 17 0 ) capacitor c=0.0465804f //x=-0.335 //y=7.4
c93 ( 13 0 ) capacitor c=0.280232f //x=4.81 //y=7.4
r94 (  47 62 ) resistor r=4.11603 //w=0.68 //l=0.17 //layer=li //thickness=0.1 \
 //x=4.885 //y=7.23 //x2=4.885 //y2=7.4
r95 (  47 65 ) resistor r=56.4706 //w=0.187 //l=0.825 //layer=li \
 //thickness=0.1 //x=4.885 //y=7.23 //x2=4.885 //y2=6.405
r96 (  46 60 ) resistor r=2.94794 //w=0.34 //l=0.085 //layer=li \
 //thickness=0.1 //x=4.09 //y=7.4 //x2=4.005 //y2=7.4
r97 (  45 62 ) resistor r=2.94794 //w=0.34 //l=0.085 //layer=li \
 //thickness=0.1 //x=4.8 //y=7.4 //x2=4.885 //y2=7.4
r98 (  45 46 ) resistor r=25.4566 //w=0.357 //l=0.71 //layer=li \
 //thickness=0.1 //x=4.8 //y=7.4 //x2=4.09 //y2=7.4
r99 (  39 60 ) resistor r=4.11603 //w=0.68 //l=0.17 //layer=li //thickness=0.1 \
 //x=4.005 //y=7.23 //x2=4.005 //y2=7.4
r100 (  39 64 ) resistor r=56.4706 //w=0.187 //l=0.825 //layer=li \
 //thickness=0.1 //x=4.005 //y=7.23 //x2=4.005 //y2=6.405
r101 (  38 58 ) resistor r=5.4201 //w=0.34 //l=0.17 //layer=li //thickness=0.1 \
 //x=3.5 //y=7.4 //x2=3.33 //y2=7.4
r102 (  37 60 ) resistor r=2.94794 //w=0.34 //l=0.085 //layer=li \
 //thickness=0.1 //x=3.92 //y=7.4 //x2=4.005 //y2=7.4
r103 (  37 38 ) resistor r=15.0588 //w=0.357 //l=0.42 //layer=li \
 //thickness=0.1 //x=3.92 //y=7.4 //x2=3.5 //y2=7.4
r104 (  32 34 ) resistor r=39.7983 //w=0.357 //l=1.11 //layer=li \
 //thickness=0.1 //x=1.48 //y=7.4 //x2=2.59 //y2=7.4
r105 (  30 32 ) resistor r=39.7983 //w=0.357 //l=1.11 //layer=li \
 //thickness=0.1 //x=0.37 //y=7.4 //x2=1.48 //y2=7.4
r106 (  28 57 ) resistor r=2.94794 //w=0.34 //l=0.085 //layer=li \
 //thickness=0.1 //x=-0.165 //y=7.4 //x2=-0.25 //y2=7.4
r107 (  28 30 ) resistor r=19.1821 //w=0.357 //l=0.535 //layer=li \
 //thickness=0.1 //x=-0.165 //y=7.4 //x2=0.37 //y2=7.4
r108 (  27 58 ) resistor r=5.4201 //w=0.34 //l=0.17 //layer=li //thickness=0.1 \
 //x=3.16 //y=7.4 //x2=3.33 //y2=7.4
r109 (  27 34 ) resistor r=20.437 //w=0.357 //l=0.57 //layer=li \
 //thickness=0.1 //x=3.16 //y=7.4 //x2=2.59 //y2=7.4
r110 (  21 57 ) resistor r=4.11603 //w=0.68 //l=0.17 //layer=li \
 //thickness=0.1 //x=-0.25 //y=7.23 //x2=-0.25 //y2=7.4
r111 (  21 63 ) resistor r=33.5401 //w=0.187 //l=0.49 //layer=li \
 //thickness=0.1 //x=-0.25 //y=7.23 //x2=-0.25 //y2=6.74
r112 (  17 57 ) resistor r=2.94794 //w=0.34 //l=0.085 //layer=li \
 //thickness=0.1 //x=-0.335 //y=7.4 //x2=-0.25 //y2=7.4
r113 (  17 20 ) resistor r=14.4852 //w=0.357 //l=0.404 //layer=li \
 //thickness=0.1 //x=-0.335 //y=7.4 //x2=-0.739 //y2=7.4
r114 (  13 62 ) resistor r=4.65 //w=0.17 //l=0.34 //layer=mcon //count=2 \
 //x=4.81 //y=7.4 //x2=4.81 //y2=7.4
r115 (  11 60 ) resistor r=3.1 //w=0.17 //l=0.51 //layer=mcon //count=3 \
 //x=4.07 //y=7.4 //x2=4.07 //y2=7.4
r116 (  11 13 ) resistor r=0.307309 //w=0.301 //l=0.74 //layer=m1 \
 //thickness=0.36 //x=4.07 //y=7.4 //x2=4.81 //y2=7.4
r117 (  9 34 ) resistor r=3.1 //w=0.17 //l=0.51 //layer=mcon //count=3 \
 //x=2.59 //y=7.4 //x2=2.59 //y2=7.4
r118 (  9 11 ) resistor r=0.614618 //w=0.301 //l=1.48 //layer=m1 \
 //thickness=0.36 //x=2.59 //y=7.4 //x2=4.07 //y2=7.4
r119 (  7 32 ) resistor r=3.1 //w=0.17 //l=0.51 //layer=mcon //count=3 \
 //x=1.48 //y=7.4 //x2=1.48 //y2=7.4
r120 (  7 9 ) resistor r=0.460963 //w=0.301 //l=1.11 //layer=m1 \
 //thickness=0.36 //x=1.48 //y=7.4 //x2=2.59 //y2=7.4
r121 (  5 30 ) resistor r=3.1 //w=0.17 //l=0.51 //layer=mcon //count=3 \
 //x=0.37 //y=7.4 //x2=0.37 //y2=7.4
r122 (  5 7 ) resistor r=0.460963 //w=0.301 //l=1.11 //layer=m1 \
 //thickness=0.36 //x=0.37 //y=7.4 //x2=1.48 //y2=7.4
r123 (  2 20 ) resistor r=3.1 //w=0.17 //l=0.51 //layer=mcon //count=3 \
 //x=-0.739 //y=7.4 //x2=-0.739 //y2=7.4
r124 (  2 5 ) resistor r=0.460548 //w=0.301 //l=1.109 //layer=m1 \
 //thickness=0.36 //x=-0.739 //y=7.4 //x2=0.37 //y2=7.4
ends PM_OR3X1_PCELL\%noxref_2

subckt PM_OR3X1_PCELL\%noxref_3 ( 1 2 11 12 17 23 32 34 42 45 47 48 49 50 51 \
 52 53 57 58 59 61 67 68 70 78 79 80 84 )
c153 ( 84 0 ) capacitor c=0.0159625f //x=1.965 //y=5.025
c154 ( 80 0 ) capacitor c=0.00988f //x=1.45 //y=0.905
c155 ( 79 0 ) capacitor c=0.00860823f //x=0.48 //y=0.905
c156 ( 78 0 ) capacitor c=0.007684f //x=-0.49 //y=0.905
c157 ( 70 0 ) capacitor c=0.0528806f //x=4.07 //y=2.085
c158 ( 68 0 ) capacitor c=0.0435629f //x=4.71 //y=1.255
c159 ( 67 0 ) capacitor c=0.0200386f //x=4.71 //y=0.91
c160 ( 61 0 ) capacitor c=0.0152946f //x=4.555 //y=1.41
c161 ( 59 0 ) capacitor c=0.0157804f //x=4.555 //y=0.755
c162 ( 58 0 ) capacitor c=0.0525006f //x=4.3 //y=4.79
c163 ( 57 0 ) capacitor c=0.0322983f //x=4.59 //y=4.79
c164 ( 53 0 ) capacitor c=0.0290017f //x=4.18 //y=1.92
c165 ( 52 0 ) capacitor c=0.0250027f //x=4.18 //y=1.565
c166 ( 51 0 ) capacitor c=0.0234316f //x=4.18 //y=1.255
c167 ( 50 0 ) capacitor c=0.0200596f //x=4.18 //y=0.91
c168 ( 49 0 ) capacitor c=0.154218f //x=4.665 //y=6.02
c169 ( 48 0 ) capacitor c=0.154243f //x=4.225 //y=6.02
c170 ( 45 0 ) capacitor c=0.00562058f //x=2.22 //y=5.21
c171 ( 42 0 ) capacitor c=0.00544799f //x=1.64 //y=1.655
c172 ( 41 0 ) capacitor c=0.00710337f //x=0.67 //y=1.655
c173 ( 34 0 ) capacitor c=0.0981053f //x=4.07 //y=2.085
c174 ( 32 0 ) capacitor c=0.124294f //x=2.22 //y=3.33
c175 ( 23 0 ) capacitor c=0.0253456f //x=2.135 //y=1.655
c176 ( 17 0 ) capacitor c=0.0281501f //x=1.555 //y=1.655
c177 ( 12 0 ) capacitor c=0.00277859f //x=-0.215 //y=1.655
c178 ( 11 0 ) capacitor c=0.0280953f //x=0.585 //y=1.655
c179 ( 2 0 ) capacitor c=0.0158969f //x=2.335 //y=3.33
c180 ( 1 0 ) capacitor c=0.101628f //x=3.955 //y=3.33
r181 (  70 71 ) resistor r=17.5563 //w=0.302 //l=0.11 //layer=ply \
 //thickness=0.18 //x=4.07 //y=2.085 //x2=4.18 //y2=2.085
r182 (  68 77 ) resistor r=45.1352 //w=0.168 //l=0.173853 //layer=ply \
 //thickness=0.18 //x=4.71 //y=1.255 //x2=4.67 //y2=1.41
r183 (  67 76 ) resistor r=45.1352 //w=0.168 //l=0.173853 //layer=ply \
 //thickness=0.18 //x=4.71 //y=0.91 //x2=4.67 //y2=0.755
r184 (  67 68 ) resistor r=176.904 //w=0.094 //l=0.345 //layer=ply \
 //thickness=0.18 //x=4.71 //y=0.91 //x2=4.71 //y2=1.255
r185 (  62 75 ) resistor r=10.701 //w=0.21 //l=0.115 //layer=ply \
 //thickness=0.18 //x=4.335 //y=1.41 //x2=4.22 //y2=1.41
r186 (  61 77 ) resistor r=5.52526 //w=0.168 //l=0.115 //layer=ply \
 //thickness=0.18 //x=4.555 //y=1.41 //x2=4.67 //y2=1.41
r187 (  60 74 ) resistor r=5.52526 //w=0.168 //l=0.115 //layer=ply \
 //thickness=0.18 //x=4.335 //y=0.755 //x2=4.22 //y2=0.755
r188 (  59 76 ) resistor r=5.52526 //w=0.168 //l=0.115 //layer=ply \
 //thickness=0.18 //x=4.555 //y=0.755 //x2=4.67 //y2=0.755
r189 (  59 60 ) resistor r=112.809 //w=0.094 //l=0.22 //layer=ply \
 //thickness=0.18 //x=4.555 //y=0.755 //x2=4.335 //y2=0.755
r190 (  57 64 ) resistor r=26.9307 //w=0.15 //l=0.106066 //layer=ply \
 //thickness=0.18 //x=4.59 //y=4.79 //x2=4.665 //y2=4.865
r191 (  57 58 ) resistor r=148.702 //w=0.094 //l=0.29 //layer=ply \
 //thickness=0.18 //x=4.59 //y=4.79 //x2=4.3 //y2=4.79
r192 (  54 58 ) resistor r=23.403 //w=0.284 //l=0.106066 //layer=ply \
 //thickness=0.18 //x=4.225 //y=4.865 //x2=4.3 //y2=4.79
r193 (  54 73 ) resistor r=26.3063 //w=0.284 //l=0.229783 //layer=ply \
 //thickness=0.18 //x=4.225 //y=4.865 //x2=4.07 //y2=4.7
r194 (  53 71 ) resistor r=19.1248 //w=0.302 //l=0.165 //layer=ply \
 //thickness=0.18 //x=4.18 //y=1.92 //x2=4.18 //y2=2.085
r195 (  52 75 ) resistor r=39.5823 //w=0.21 //l=0.173853 //layer=ply \
 //thickness=0.18 //x=4.18 //y=1.565 //x2=4.22 //y2=1.41
r196 (  52 53 ) resistor r=182.032 //w=0.094 //l=0.355 //layer=ply \
 //thickness=0.18 //x=4.18 //y=1.565 //x2=4.18 //y2=1.92
r197 (  51 75 ) resistor r=39.5823 //w=0.21 //l=0.173853 //layer=ply \
 //thickness=0.18 //x=4.18 //y=1.255 //x2=4.22 //y2=1.41
r198 (  50 74 ) resistor r=45.1352 //w=0.168 //l=0.173853 //layer=ply \
 //thickness=0.18 //x=4.18 //y=0.91 //x2=4.22 //y2=0.755
r199 (  50 51 ) resistor r=176.904 //w=0.094 //l=0.345 //layer=ply \
 //thickness=0.18 //x=4.18 //y=0.91 //x2=4.18 //y2=1.255
r200 (  49 64 ) resistor r=592.245 //w=0.094 //l=1.155 //layer=ply \
 //thickness=0.18 //x=4.665 //y=6.02 //x2=4.665 //y2=4.865
r201 (  48 54 ) resistor r=592.245 //w=0.094 //l=1.155 //layer=ply \
 //thickness=0.18 //x=4.225 //y=6.02 //x2=4.225 //y2=4.865
r202 (  47 61 ) resistor r=56.4043 //w=0.094 //l=0.11 //layer=ply \
 //thickness=0.18 //x=4.445 //y=1.41 //x2=4.555 //y2=1.41
r203 (  47 62 ) resistor r=56.4043 //w=0.094 //l=0.11 //layer=ply \
 //thickness=0.18 //x=4.445 //y=1.41 //x2=4.335 //y2=1.41
r204 (  43 45 ) resistor r=7.52941 //w=0.187 //l=0.11 //layer=li \
 //thickness=0.1 //x=2.11 //y=5.21 //x2=2.22 //y2=5.21
r205 (  39 73 ) resistor r=152 //w=0.17 //l=0.17 //layer=licon //count=1 \
 //x=4.07 //y=4.7 //x2=4.07 //y2=4.7
r206 (  37 39 ) resistor r=93.7754 //w=0.187 //l=1.37 //layer=li \
 //thickness=0.1 //x=4.07 //y=3.33 //x2=4.07 //y2=4.7
r207 (  34 70 ) resistor r=152 //w=0.17 //l=0.17 //layer=licon //count=1 \
 //x=4.07 //y=2.085 //x2=4.07 //y2=2.085
r208 (  34 37 ) resistor r=85.2193 //w=0.187 //l=1.245 //layer=li \
 //thickness=0.1 //x=4.07 //y=2.085 //x2=4.07 //y2=3.33
r209 (  30 45 ) resistor r=0.751729 //w=0.17 //l=0.085 //layer=li \
 //thickness=0.1 //x=2.22 //y=5.125 //x2=2.22 //y2=5.21
r210 (  30 32 ) resistor r=122.866 //w=0.187 //l=1.795 //layer=li \
 //thickness=0.1 //x=2.22 //y=5.125 //x2=2.22 //y2=3.33
r211 (  29 32 ) resistor r=108.834 //w=0.187 //l=1.59 //layer=li \
 //thickness=0.1 //x=2.22 //y=1.74 //x2=2.22 //y2=3.33
r212 (  25 43 ) resistor r=0.751729 //w=0.17 //l=0.085 //layer=li \
 //thickness=0.1 //x=2.11 //y=5.295 //x2=2.11 //y2=5.21
r213 (  25 84 ) resistor r=52.3636 //w=0.187 //l=0.765 //layer=li \
 //thickness=0.1 //x=2.11 //y=5.295 //x2=2.11 //y2=6.06
r214 (  24 42 ) resistor r=5.4201 //w=0.17 //l=0.085 //layer=li \
 //thickness=0.1 //x=1.725 //y=1.655 //x2=1.64 //y2=1.655
r215 (  23 29 ) resistor r=7.15173 //w=0.17 //l=0.120208 //layer=li \
 //thickness=0.1 //x=2.135 //y=1.655 //x2=2.22 //y2=1.74
r216 (  23 24 ) resistor r=28.0642 //w=0.187 //l=0.41 //layer=li \
 //thickness=0.1 //x=2.135 //y=1.655 //x2=1.725 //y2=1.655
r217 (  19 42 ) resistor r=1.40859 //w=0.34 //l=0.085 //layer=li \
 //thickness=0.1 //x=1.64 //y=1.57 //x2=1.64 //y2=1.655
r218 (  19 80 ) resistor r=39.016 //w=0.187 //l=0.57 //layer=li \
 //thickness=0.1 //x=1.64 //y=1.57 //x2=1.64 //y2=1
r219 (  18 41 ) resistor r=5.4201 //w=0.17 //l=0.085 //layer=li \
 //thickness=0.1 //x=0.755 //y=1.655 //x2=0.67 //y2=1.655
r220 (  17 42 ) resistor r=5.4201 //w=0.17 //l=0.085 //layer=li \
 //thickness=0.1 //x=1.555 //y=1.655 //x2=1.64 //y2=1.655
r221 (  17 18 ) resistor r=54.7594 //w=0.187 //l=0.8 //layer=li \
 //thickness=0.1 //x=1.555 //y=1.655 //x2=0.755 //y2=1.655
r222 (  13 41 ) resistor r=1.40859 //w=0.34 //l=0.085 //layer=li \
 //thickness=0.1 //x=0.67 //y=1.57 //x2=0.67 //y2=1.655
r223 (  13 79 ) resistor r=39.016 //w=0.187 //l=0.57 //layer=li \
 //thickness=0.1 //x=0.67 //y=1.57 //x2=0.67 //y2=1
r224 (  11 41 ) resistor r=5.4201 //w=0.17 //l=0.085 //layer=li \
 //thickness=0.1 //x=0.585 //y=1.655 //x2=0.67 //y2=1.655
r225 (  11 12 ) resistor r=54.7594 //w=0.187 //l=0.8 //layer=li \
 //thickness=0.1 //x=0.585 //y=1.655 //x2=-0.215 //y2=1.655
r226 (  7 12 ) resistor r=7.15173 //w=0.17 //l=0.120208 //layer=li \
 //thickness=0.1 //x=-0.3 //y=1.57 //x2=-0.215 //y2=1.655
r227 (  7 78 ) resistor r=39.016 //w=0.187 //l=0.57 //layer=li //thickness=0.1 \
 //x=-0.3 //y=1.57 //x2=-0.3 //y2=1
r228 (  6 37 ) resistor r=9.3 //w=0.17 //l=0.17 //layer=mcon //count=1 \
 //x=4.07 //y=3.33 //x2=4.07 //y2=3.33
r229 (  4 32 ) resistor r=9.3 //w=0.17 //l=0.17 //layer=mcon //count=1 \
 //x=2.22 //y=3.33 //x2=2.22 //y2=3.33
r230 (  2 4 ) resistor r=0.0717383 //w=0.224 //l=0.115 //layer=m1 \
 //thickness=0.36 //x=2.335 //y=3.33 //x2=2.22 //y2=3.33
r231 (  1 6 ) resistor r=0.0717383 //w=0.224 //l=0.115 //layer=m1 \
 //thickness=0.36 //x=3.955 //y=3.33 //x2=4.07 //y2=3.33
r232 (  1 2 ) resistor r=1.5458 //w=0.131 //l=1.62 //layer=m1 //thickness=0.36 \
 //x=3.955 //y=3.33 //x2=2.335 //y2=3.33
ends PM_OR3X1_PCELL\%noxref_3

subckt PM_OR3X1_PCELL\%noxref_4 ( 3 6 8 9 10 11 12 13 14 18 20 23 25 26 31 )
c66 ( 31 0 ) capacitor c=0.04214f //x=-0.524 //y=4.705
c67 ( 26 0 ) capacitor c=0.0321911f //x=-0.035 //y=1.25
c68 ( 25 0 ) capacitor c=0.0185201f //x=-0.035 //y=0.905
c69 ( 23 0 ) capacitor c=0.0344254f //x=-0.105 //y=4.795
c70 ( 20 0 ) capacitor c=0.0133656f //x=-0.19 //y=1.405
c71 ( 18 0 ) capacitor c=0.0157804f //x=-0.19 //y=0.75
c72 ( 14 0 ) capacitor c=0.0828832f //x=-0.565 //y=1.915
c73 ( 13 0 ) capacitor c=0.022867f //x=-0.565 //y=1.56
c74 ( 12 0 ) capacitor c=0.0234318f //x=-0.565 //y=1.25
c75 ( 11 0 ) capacitor c=0.0192004f //x=-0.565 //y=0.905
c76 ( 10 0 ) capacitor c=0.110795f //x=-0.03 //y=6.025
c77 ( 9 0 ) capacitor c=0.153847f //x=-0.47 //y=6.025
c78 ( 6 0 ) capacitor c=0.00993392f //x=-0.524 //y=4.705
c79 ( 3 0 ) capacitor c=0.112714f //x=-0.369 //y=2.08
r80 (  33 34 ) resistor r=32.4568 //w=0.214 //l=0.075 //layer=ply \
 //thickness=0.18 //x=-0.525 //y=4.795 //x2=-0.525 //y2=4.87
r81 (  31 33 ) resistor r=20.271 //w=0.214 //l=0.09 //layer=ply \
 //thickness=0.18 //x=-0.525 //y=4.705 //x2=-0.525 //y2=4.795
r82 (  26 40 ) resistor r=45.1352 //w=0.168 //l=0.173853 //layer=ply \
 //thickness=0.18 //x=-0.035 //y=1.25 //x2=-0.075 //y2=1.405
r83 (  25 39 ) resistor r=45.1352 //w=0.168 //l=0.173853 //layer=ply \
 //thickness=0.18 //x=-0.035 //y=0.905 //x2=-0.075 //y2=0.75
r84 (  25 26 ) resistor r=176.904 //w=0.094 //l=0.345 //layer=ply \
 //thickness=0.18 //x=-0.035 //y=0.905 //x2=-0.035 //y2=1.25
r85 (  24 33 ) resistor r=16.5046 //w=0.27 //l=0.135 //layer=ply \
 //thickness=0.18 //x=-0.39 //y=4.795 //x2=-0.525 //y2=4.795
r86 (  23 27 ) resistor r=26.9307 //w=0.15 //l=0.106066 //layer=ply \
 //thickness=0.18 //x=-0.105 //y=4.795 //x2=-0.03 //y2=4.87
r87 (  23 24 ) resistor r=146.138 //w=0.094 //l=0.285 //layer=ply \
 //thickness=0.18 //x=-0.105 //y=4.795 //x2=-0.39 //y2=4.795
r88 (  21 38 ) resistor r=10.701 //w=0.21 //l=0.115 //layer=ply \
 //thickness=0.18 //x=-0.41 //y=1.405 //x2=-0.525 //y2=1.405
r89 (  20 40 ) resistor r=5.52526 //w=0.168 //l=0.115 //layer=ply \
 //thickness=0.18 //x=-0.19 //y=1.405 //x2=-0.075 //y2=1.405
r90 (  19 37 ) resistor r=5.52526 //w=0.168 //l=0.115 //layer=ply \
 //thickness=0.18 //x=-0.41 //y=0.75 //x2=-0.525 //y2=0.75
r91 (  18 39 ) resistor r=5.52526 //w=0.168 //l=0.115 //layer=ply \
 //thickness=0.18 //x=-0.19 //y=0.75 //x2=-0.075 //y2=0.75
r92 (  18 19 ) resistor r=112.809 //w=0.094 //l=0.22 //layer=ply \
 //thickness=0.18 //x=-0.19 //y=0.75 //x2=-0.41 //y2=0.75
r93 (  14 36 ) resistor r=34.9896 //w=0.27 //l=0.266 //layer=ply \
 //thickness=0.18 //x=-0.565 //y=1.915 //x2=-0.369 //y2=2.08
r94 (  13 38 ) resistor r=39.5823 //w=0.21 //l=0.173853 //layer=ply \
 //thickness=0.18 //x=-0.565 //y=1.56 //x2=-0.525 //y2=1.405
r95 (  13 14 ) resistor r=182.032 //w=0.094 //l=0.355 //layer=ply \
 //thickness=0.18 //x=-0.565 //y=1.56 //x2=-0.565 //y2=1.915
r96 (  12 38 ) resistor r=39.5823 //w=0.21 //l=0.173853 //layer=ply \
 //thickness=0.18 //x=-0.565 //y=1.25 //x2=-0.525 //y2=1.405
r97 (  11 37 ) resistor r=45.1352 //w=0.168 //l=0.173853 //layer=ply \
 //thickness=0.18 //x=-0.565 //y=0.905 //x2=-0.525 //y2=0.75
r98 (  11 12 ) resistor r=176.904 //w=0.094 //l=0.345 //layer=ply \
 //thickness=0.18 //x=-0.565 //y=0.905 //x2=-0.565 //y2=1.25
r99 (  10 27 ) resistor r=592.245 //w=0.094 //l=1.155 //layer=ply \
 //thickness=0.18 //x=-0.03 //y=6.025 //x2=-0.03 //y2=4.87
r100 (  9 34 ) resistor r=592.245 //w=0.094 //l=1.155 //layer=ply \
 //thickness=0.18 //x=-0.47 //y=6.025 //x2=-0.47 //y2=4.87
r101 (  8 20 ) resistor r=55.8915 //w=0.094 //l=0.109 //layer=ply \
 //thickness=0.18 //x=-0.299 //y=1.405 //x2=-0.19 //y2=1.405
r102 (  8 21 ) resistor r=56.917 //w=0.094 //l=0.111 //layer=ply \