// File: TMRDFFQNX1.spi.TMRDFFQNX1.pxi
// Created: Tue Oct 15 15:51:34 2024
// 
simulator lang=spectre
x_PM_TMRDFFQNX1\%GND ( GND N_GND_c_23_p N_GND_c_113_p N_GND_c_1_p N_GND_c_24_p \
 N_GND_c_25_p N_GND_c_74_p N_GND_c_33_p N_GND_c_40_p N_GND_c_50_p N_GND_c_57_p \
 N_GND_c_77_p N_GND_c_84_p N_GND_c_91_p N_GND_c_98_p N_GND_c_206_p \
 N_GND_c_213_p N_GND_c_162_p N_GND_c_169_p N_GND_c_130_p N_GND_c_137_p \
 N_GND_c_146_p N_GND_c_153_p N_GND_c_172_p N_GND_c_179_p N_GND_c_186_p \
 N_GND_c_193_p N_GND_c_350_p N_GND_c_357_p N_GND_c_306_p N_GND_c_313_p \
 N_GND_c_265_p N_GND_c_272_p N_GND_c_281_p N_GND_c_288_p N_GND_c_316_p \
 N_GND_c_323_p N_GND_c_330_p N_GND_c_337_p N_GND_c_372_p N_GND_c_379_p \
 N_GND_c_382_p N_GND_c_388_p N_GND_c_469_p N_GND_c_2_p N_GND_c_3_p N_GND_c_4_p \
 N_GND_c_5_p N_GND_c_6_p N_GND_c_7_p N_GND_c_8_p N_GND_c_9_p N_GND_c_10_p \
 N_GND_c_11_p N_GND_c_12_p N_GND_c_13_p N_GND_c_14_p N_GND_c_15_p N_GND_c_16_p \
 N_GND_c_17_p N_GND_c_18_p N_GND_c_19_p N_GND_c_20_p N_GND_c_21_p N_GND_c_22_p \
 N_GND_M0_noxref_d N_GND_M3_noxref_d N_GND_M5_noxref_d N_GND_M7_noxref_d \
 N_GND_M9_noxref_d N_GND_M11_noxref_d N_GND_M13_noxref_d N_GND_M16_noxref_d \
 N_GND_M18_noxref_d N_GND_M20_noxref_d N_GND_M22_noxref_d N_GND_M24_noxref_d \
 N_GND_M26_noxref_d N_GND_M29_noxref_d N_GND_M31_noxref_d N_GND_M33_noxref_d \
 N_GND_M35_noxref_d N_GND_M37_noxref_d N_GND_M39_noxref_d N_GND_M41_noxref_d \
 N_GND_M43_noxref_d )  PM_TMRDFFQNX1\%GND
x_PM_TMRDFFQNX1\%VDD ( VDD N_VDD_c_960_p N_VDD_c_937_n N_VDD_c_1027_p \
 N_VDD_c_1028_p N_VDD_c_975_p N_VDD_c_1038_p N_VDD_c_1447_p N_VDD_c_961_p \
 N_VDD_c_962_p N_VDD_c_1449_p N_VDD_c_1450_p N_VDD_c_973_p N_VDD_c_997_p \
 N_VDD_c_1452_p N_VDD_c_1453_p N_VDD_c_1008_p N_VDD_c_1121_p N_VDD_c_1465_p \
 N_VDD_c_1466_p N_VDD_c_1045_p N_VDD_c_1074_p N_VDD_c_1491_p N_VDD_c_1492_p \
 N_VDD_c_1085_p N_VDD_c_1142_p N_VDD_c_1494_p N_VDD_c_1495_p N_VDD_c_1228_p \
 N_VDD_c_1229_p N_VDD_c_1176_p N_VDD_c_1239_p N_VDD_c_1474_p N_VDD_c_1162_p \
 N_VDD_c_1163_p N_VDD_c_1476_p N_VDD_c_1477_p N_VDD_c_1174_p N_VDD_c_1198_p \
 N_VDD_c_1479_p N_VDD_c_1480_p N_VDD_c_1209_p N_VDD_c_1318_p N_VDD_c_1504_p \
 N_VDD_c_1505_p N_VDD_c_1246_p N_VDD_c_1275_p N_VDD_c_1507_p N_VDD_c_1508_p \
 N_VDD_c_1286_p N_VDD_c_1339_p N_VDD_c_1510_p N_VDD_c_1511_p N_VDD_c_1512_p \
 N_VDD_c_1572_p N_VDD_c_1394_p N_VDD_c_1524_p N_VDD_c_1525_p N_VDD_c_1380_p \
 N_VDD_c_1373_p N_VDD_c_1527_p N_VDD_c_1528_p N_VDD_c_1392_p N_VDD_c_1416_p \
 N_VDD_c_1530_p N_VDD_c_1531_p N_VDD_c_1427_p N_VDD_c_1576_p N_VDD_c_1673_p \
 N_VDD_c_1674_p N_VDD_c_1600_p N_VDD_c_1638_p N_VDD_c_1628_p N_VDD_c_1629_p \
 N_VDD_c_1630_p N_VDD_c_1710_p N_VDD_c_1739_p N_VDD_c_1734_p N_VDD_c_1817_p \
 N_VDD_c_1838_p N_VDD_c_1772_p N_VDD_c_938_n N_VDD_c_939_n N_VDD_c_940_n \
 N_VDD_c_941_n N_VDD_c_942_n N_VDD_c_943_n N_VDD_c_944_n N_VDD_c_945_n \
 N_VDD_c_946_n N_VDD_c_947_n N_VDD_c_948_n N_VDD_c_949_n N_VDD_c_950_n \
 N_VDD_c_951_n N_VDD_c_952_n N_VDD_c_953_n N_VDD_c_954_n N_VDD_c_955_n \
 N_VDD_c_956_n N_VDD_c_957_n N_VDD_c_958_n N_VDD_M45_noxref_s \
 N_VDD_M46_noxref_d N_VDD_M48_noxref_d N_VDD_M50_noxref_d N_VDD_M51_noxref_s \
 N_VDD_M52_noxref_d N_VDD_M54_noxref_d N_VDD_M55_noxref_s N_VDD_M56_noxref_d \
 N_VDD_M58_noxref_d N_VDD_M59_noxref_s N_VDD_M60_noxref_d N_VDD_M62_noxref_d \
 N_VDD_M63_noxref_s N_VDD_M64_noxref_d N_VDD_M66_noxref_d N_VDD_M67_noxref_s \
 N_VDD_M68_noxref_d N_VDD_M70_noxref_d N_VDD_M71_noxref_s N_VDD_M72_noxref_d \
 N_VDD_M74_noxref_d N_VDD_M76_noxref_d N_VDD_M77_noxref_s N_VDD_M78_noxref_d \
 N_VDD_M80_noxref_d N_VDD_M81_noxref_s N_VDD_M82_noxref_d N_VDD_M84_noxref_d \
 N_VDD_M85_noxref_s N_VDD_M86_noxref_d N_VDD_M88_noxref_d N_VDD_M89_noxref_s \
 N_VDD_M90_noxref_d N_VDD_M92_noxref_d N_VDD_M93_noxref_s N_VDD_M94_noxref_d \
 N_VDD_M96_noxref_d N_VDD_M97_noxref_s N_VDD_M98_noxref_d N_VDD_M100_noxref_d \
 N_VDD_M102_noxref_d N_VDD_M103_noxref_s N_VDD_M104_noxref_d \
 N_VDD_M106_noxref_d N_VDD_M107_noxref_s N_VDD_M108_noxref_d \
 N_VDD_M110_noxref_d N_VDD_M111_noxref_s N_VDD_M112_noxref_d \
 N_VDD_M114_noxref_d N_VDD_M115_noxref_s N_VDD_M116_noxref_d \
 N_VDD_M118_noxref_d N_VDD_M119_noxref_s N_VDD_M120_noxref_d \
 N_VDD_M122_noxref_d N_VDD_M123_noxref_s N_VDD_M124_noxref_d \
 N_VDD_M126_noxref_d )  PM_TMRDFFQNX1\%VDD
x_PM_TMRDFFQNX1\%noxref_3 ( N_noxref_3_c_1935_n N_noxref_3_c_1939_n \
 N_noxref_3_c_1940_n N_noxref_3_c_2007_p N_noxref_3_c_1941_n \
 N_noxref_3_c_1959_n N_noxref_3_c_1963_n N_noxref_3_c_1965_n \
 N_noxref_3_c_1942_n N_noxref_3_c_2079_p N_noxref_3_c_1943_n \
 N_noxref_3_c_1944_n N_noxref_3_c_2099_p N_noxref_3_M2_noxref_g \
 N_noxref_3_M5_noxref_g N_noxref_3_M49_noxref_g N_noxref_3_M50_noxref_g \
 N_noxref_3_M55_noxref_g N_noxref_3_M56_noxref_g N_noxref_3_c_2034_p \
 N_noxref_3_c_2035_p N_noxref_3_c_2036_p N_noxref_3_c_2037_p \
 N_noxref_3_c_2014_p N_noxref_3_c_2039_p N_noxref_3_c_2015_p \
 N_noxref_3_c_1945_n N_noxref_3_c_1947_n N_noxref_3_c_1948_n \
 N_noxref_3_c_1949_n N_noxref_3_c_1950_n N_noxref_3_c_1951_n \
 N_noxref_3_c_1952_n N_noxref_3_c_1954_n N_noxref_3_c_2021_p \
 N_noxref_3_c_2022_p N_noxref_3_c_2013_p N_noxref_3_c_1982_n \
 N_noxref_3_M4_noxref_d N_noxref_3_M51_noxref_d N_noxref_3_M53_noxref_d )  \
 PM_TMRDFFQNX1\%noxref_3
x_PM_TMRDFFQNX1\%noxref_4 ( N_noxref_4_c_2167_n N_noxref_4_c_2215_n \
 N_noxref_4_c_2184_n N_noxref_4_c_2188_n N_noxref_4_c_2190_n \
 N_noxref_4_c_2168_n N_noxref_4_c_2266_p N_noxref_4_c_2169_n \
 N_noxref_4_c_2170_n N_noxref_4_c_2251_p N_noxref_4_M7_noxref_g \
 N_noxref_4_M59_noxref_g N_noxref_4_M60_noxref_g N_noxref_4_c_2171_n \
 N_noxref_4_c_2173_n N_noxref_4_c_2174_n N_noxref_4_c_2175_n \
 N_noxref_4_c_2176_n N_noxref_4_c_2177_n N_noxref_4_c_2178_n \
 N_noxref_4_c_2180_n N_noxref_4_c_2203_n N_noxref_4_M6_noxref_d \
 N_noxref_4_M55_noxref_d N_noxref_4_M57_noxref_d )  PM_TMRDFFQNX1\%noxref_4
x_PM_TMRDFFQNX1\%noxref_5 ( N_noxref_5_c_2388_n N_noxref_5_c_2389_n \
 N_noxref_5_c_2317_n N_noxref_5_c_2396_n N_noxref_5_c_2342_n \
 N_noxref_5_c_2346_n N_noxref_5_c_2348_n N_noxref_5_c_2352_n \
 N_noxref_5_c_2318_n N_noxref_5_c_2402_n N_noxref_5_c_2356_n \
 N_noxref_5_c_2319_n N_noxref_5_c_2320_n N_noxref_5_c_2497_p \
 N_noxref_5_c_2414_n N_noxref_5_M3_noxref_g N_noxref_5_M9_noxref_g \
 N_noxref_5_M51_noxref_g N_noxref_5_M52_noxref_g N_noxref_5_M63_noxref_g \
 N_noxref_5_M64_noxref_g N_noxref_5_c_2321_n N_noxref_5_c_2323_n \
 N_noxref_5_c_2324_n N_noxref_5_c_2325_n N_noxref_5_c_2326_n \
 N_noxref_5_c_2327_n N_noxref_5_c_2328_n N_noxref_5_c_2330_n \
 N_noxref_5_c_2331_n N_noxref_5_c_2333_n N_noxref_5_c_2334_n \
 N_noxref_5_c_2335_n N_noxref_5_c_2336_n N_noxref_5_c_2337_n \
 N_noxref_5_c_2338_n N_noxref_5_c_2340_n N_noxref_5_c_2371_n \
 N_noxref_5_c_2372_n N_noxref_5_M2_noxref_d N_noxref_5_M45_noxref_d \
 N_noxref_5_M47_noxref_d N_noxref_5_M49_noxref_d )  PM_TMRDFFQNX1\%noxref_5
x_PM_TMRDFFQNX1\%noxref_6 ( N_noxref_6_c_2619_p N_noxref_6_c_2612_n \
 N_noxref_6_c_2581_n N_noxref_6_c_2585_n N_noxref_6_c_2587_n \
 N_noxref_6_c_2565_n N_noxref_6_c_2649_p N_noxref_6_c_2566_n \
 N_noxref_6_c_2567_n N_noxref_6_c_2685_p N_noxref_6_M11_noxref_g \
 N_noxref_6_M67_noxref_g N_noxref_6_M68_noxref_g N_noxref_6_c_2568_n \
 N_noxref_6_c_2570_n N_noxref_6_c_2571_n N_noxref_6_c_2572_n \
 N_noxref_6_c_2573_n N_noxref_6_c_2574_n N_noxref_6_c_2575_n \
 N_noxref_6_c_2577_n N_noxref_6_c_2600_n N_noxref_6_M10_noxref_d \
 N_noxref_6_M63_noxref_d N_noxref_6_M65_noxref_d )  PM_TMRDFFQNX1\%noxref_6
x_PM_TMRDFFQNX1\%noxref_7 ( N_noxref_7_c_2715_n N_noxref_7_c_2716_n \
 N_noxref_7_c_2744_n N_noxref_7_c_2801_n N_noxref_7_c_2745_n \
 N_noxref_7_c_2747_n N_noxref_7_c_2717_n N_noxref_7_c_2803_n \
 N_noxref_7_c_2718_n N_noxref_7_c_2753_n N_noxref_7_c_2757_n \
 N_noxref_7_c_2759_n N_noxref_7_c_2720_n N_noxref_7_c_2919_p \
 N_noxref_7_c_2721_n N_noxref_7_c_2888_n N_noxref_7_c_2722_n \
 N_noxref_7_c_2981_p N_noxref_7_M0_noxref_g N_noxref_7_M6_noxref_g \
 N_noxref_7_M12_noxref_g N_noxref_7_M45_noxref_g N_noxref_7_M46_noxref_g \
 N_noxref_7_M57_noxref_g N_noxref_7_M58_noxref_g N_noxref_7_M69_noxref_g \
 N_noxref_7_M70_noxref_g N_noxref_7_c_2724_n N_noxref_7_c_2726_n \
 N_noxref_7_c_2727_n N_noxref_7_c_2728_n N_noxref_7_c_2729_n \
 N_noxref_7_c_2730_n N_noxref_7_c_2731_n N_noxref_7_c_2733_n \
 N_noxref_7_c_2882_n N_noxref_7_c_2781_n N_noxref_7_c_2812_n \
 N_noxref_7_c_2815_n N_noxref_7_c_2817_n N_noxref_7_c_2849_n \
 N_noxref_7_c_2851_n N_noxref_7_c_2852_n N_noxref_7_c_2820_n \
 N_noxref_7_c_2821_n N_noxref_7_c_2897_n N_noxref_7_c_2900_n \
 N_noxref_7_c_2902_n N_noxref_7_c_2946_p N_noxref_7_c_3020_p \
 N_noxref_7_c_3007_p N_noxref_7_c_2905_n N_noxref_7_c_2906_n \
 N_noxref_7_c_2822_n N_noxref_7_c_2858_n N_noxref_7_c_2824_n \
 N_noxref_7_c_2907_n N_noxref_7_c_3014_p N_noxref_7_c_2909_n \
 N_noxref_7_M8_noxref_d N_noxref_7_M59_noxref_d N_noxref_7_M61_noxref_d )  \
 PM_TMRDFFQNX1\%noxref_7
x_PM_TMRDFFQNX1\%noxref_8 ( N_noxref_8_c_3129_p N_noxref_8_c_3144_p \
 N_noxref_8_c_3121_p N_noxref_8_c_3134_p N_noxref_8_c_3068_n \
 N_noxref_8_c_3086_n N_noxref_8_c_3090_n N_noxref_8_c_3092_n \
 N_noxref_8_c_3069_n N_noxref_8_c_3209_p N_noxref_8_c_3070_n \
 N_noxref_8_c_3071_n N_noxref_8_c_3229_p N_noxref_8_M15_noxref_g \
 N_noxref_8_M18_noxref_g N_noxref_8_M75_noxref_g N_noxref_8_M76_noxref_g \
 N_noxref_8_M81_noxref_g N_noxref_8_M82_noxref_g N_noxref_8_c_3160_p \
 N_noxref_8_c_3161_p N_noxref_8_c_3162_p N_noxref_8_c_3163_p \
 N_noxref_8_c_3141_p N_noxref_8_c_3165_p N_noxref_8_c_3142_p \
 N_noxref_8_c_3072_n N_noxref_8_c_3074_n N_noxref_8_c_3075_n \
 N_noxref_8_c_3076_n N_noxref_8_c_3077_n N_noxref_8_c_3078_n \
 N_noxref_8_c_3079_n N_noxref_8_c_3081_n N_noxref_8_c_3147_p \
 N_noxref_8_c_3148_p N_noxref_8_c_3140_p N_noxref_8_c_3109_n \
 N_noxref_8_M17_noxref_d N_noxref_8_M77_noxref_d N_noxref_8_M79_noxref_d )  \
 PM_TMRDFFQNX1\%noxref_8
x_PM_TMRDFFQNX1\%noxref_9 ( N_noxref_9_c_3355_p N_noxref_9_c_3347_n \
 N_noxref_9_c_3316_n N_noxref_9_c_3320_n N_noxref_9_c_3322_n \
 N_noxref_9_c_3300_n N_noxref_9_c_3398_p N_noxref_9_c_3301_n \
 N_noxref_9_c_3302_n N_noxref_9_c_3383_p N_noxref_9_M20_noxref_g \
 N_noxref_9_M85_noxref_g N_noxref_9_M86_noxref_g N_noxref_9_c_3303_n \
 N_noxref_9_c_3305_n N_noxref_9_c_3306_n N_noxref_9_c_3307_n \
 N_noxref_9_c_3308_n N_noxref_9_c_3309_n N_noxref_9_c_3310_n \
 N_noxref_9_c_3312_n N_noxref_9_c_3335_n N_noxref_9_M19_noxref_d \
 N_noxref_9_M81_noxref_d N_noxref_9_M83_noxref_d )  PM_TMRDFFQNX1\%noxref_9
x_PM_TMRDFFQNX1\%noxref_10 ( N_noxref_10_c_3523_n N_noxref_10_c_3524_n \
 N_noxref_10_c_3526_n N_noxref_10_c_3531_n N_noxref_10_c_3477_n \
 N_noxref_10_c_3481_n N_noxref_10_c_3483_n N_noxref_10_c_3487_n \
 N_noxref_10_c_3453_n N_noxref_10_c_3594_p N_noxref_10_c_3491_n \
 N_noxref_10_c_3454_n N_noxref_10_c_3455_n N_noxref_10_c_3633_p \
 N_noxref_10_c_3548_n N_noxref_10_M16_noxref_g N_noxref_10_M22_noxref_g \
 N_noxref_10_M77_noxref_g N_noxref_10_M78_noxref_g N_noxref_10_M89_noxref_g \
 N_noxref_10_M90_noxref_g N_noxref_10_c_3456_n N_noxref_10_c_3458_n \
 N_noxref_10_c_3459_n N_noxref_10_c_3460_n N_noxref_10_c_3461_n \
 N_noxref_10_c_3462_n N_noxref_10_c_3463_n N_noxref_10_c_3465_n \
 N_noxref_10_c_3466_n N_noxref_10_c_3468_n N_noxref_10_c_3469_n \
 N_noxref_10_c_3470_n N_noxref_10_c_3471_n N_noxref_10_c_3472_n \
 N_noxref_10_c_3473_n N_noxref_10_c_3475_n N_noxref_10_c_3506_n \
 N_noxref_10_c_3507_n N_noxref_10_M15_noxref_d N_noxref_10_M71_noxref_d \
 N_noxref_10_M73_noxref_d N_noxref_10_M75_noxref_d )  PM_TMRDFFQNX1\%noxref_10
x_PM_TMRDFFQNX1\%noxref_11 ( N_noxref_11_c_3765_p N_noxref_11_c_3758_n \
 N_noxref_11_c_3727_n N_noxref_11_c_3731_n N_noxref_11_c_3733_n \
 N_noxref_11_c_3711_n N_noxref_11_c_3804_p N_noxref_11_c_3712_n \
 N_noxref_11_c_3713_n N_noxref_11_c_3828_p N_noxref_11_M24_noxref_g \
 N_noxref_11_M93_noxref_g N_noxref_11_M94_noxref_g N_noxref_11_c_3714_n \
 N_noxref_11_c_3716_n N_noxref_11_c_3717_n N_noxref_11_c_3718_n \
 N_noxref_11_c_3719_n N_noxref_11_c_3720_n N_noxref_11_c_3721_n \
 N_noxref_11_c_3723_n N_noxref_11_c_3746_n N_noxref_11_M23_noxref_d \
 N_noxref_11_M89_noxref_d N_noxref_11_M91_noxref_d )  PM_TMRDFFQNX1\%noxref_11
x_PM_TMRDFFQNX1\%noxref_12 ( N_noxref_12_c_3882_n N_noxref_12_c_3884_n \
 N_noxref_12_c_3885_n N_noxref_12_c_3944_n N_noxref_12_c_3886_n \
 N_noxref_12_c_3888_n N_noxref_12_c_3862_n N_noxref_12_c_3946_n \
 N_noxref_12_c_3863_n N_noxref_12_c_3894_n N_noxref_12_c_3898_n \
 N_noxref_12_c_3900_n N_noxref_12_c_3865_n N_noxref_12_c_4059_p \
 N_noxref_12_c_3866_n N_noxref_12_c_4030_n N_noxref_12_c_3867_n \
 N_noxref_12_c_4121_p N_noxref_12_M13_noxref_g N_noxref_12_M19_noxref_g \
 N_noxref_12_M25_noxref_g N_noxref_12_M71_noxref_g N_noxref_12_M72_noxref_g \
 N_noxref_12_M83_noxref_g N_noxref_12_M84_noxref_g N_noxref_12_M95_noxref_g \
 N_noxref_12_M96_noxref_g N_noxref_12_c_3869_n N_noxref_12_c_3871_n \
 N_noxref_12_c_3872_n N_noxref_12_c_3873_n N_noxref_12_c_3874_n \
 N_noxref_12_c_3875_n N_noxref_12_c_3876_n N_noxref_12_c_3878_n \
 N_noxref_12_c_4024_n N_noxref_12_c_3922_n N_noxref_12_c_3955_n \
 N_noxref_12_c_3958_n N_noxref_12_c_3960_n N_noxref_12_c_3992_n \
 N_noxref_12_c_3994_n N_noxref_12_c_3995_n N_noxref_12_c_3963_n \
 N_noxref_12_c_3964_n N_noxref_12_c_4039_n N_noxref_12_c_4042_n \
 N_noxref_12_c_4044_n N_noxref_12_c_4083_p N_noxref_12_c_4162_p \
 N_noxref_12_c_4139_p N_noxref_12_c_4047_n N_noxref_12_c_4048_n \
 N_noxref_12_c_3965_n N_noxref_12_c_4001_n N_noxref_12_c_3967_n \
 N_noxref_12_c_4049_n N_noxref_12_c_4156_p N_noxref_12_c_4051_n \
 N_noxref_12_M21_noxref_d N_noxref_12_M85_noxref_d N_noxref_12_M87_noxref_d )  \
 PM_TMRDFFQNX1\%noxref_12
x_PM_TMRDFFQNX1\%D ( N_D_c_4217_n N_D_c_4236_n N_D_c_4238_n N_D_c_4251_n D D D \
 D N_D_c_4289_n N_D_c_4253_n N_D_c_4381_n N_D_c_4255_n N_D_c_4465_p \
 N_D_c_4257_n N_D_M4_noxref_g N_D_M17_noxref_g N_D_M30_noxref_g \
 N_D_M53_noxref_g N_D_M54_noxref_g N_D_M79_noxref_g N_D_M80_noxref_g \
 N_D_M105_noxref_g N_D_M106_noxref_g N_D_c_4299_n N_D_c_4300_n N_D_c_4301_n \
 N_D_c_4302_n N_D_c_4304_n N_D_c_4305_n N_D_c_4307_n N_D_c_4308_n N_D_c_4391_n \
 N_D_c_4392_n N_D_c_4393_n N_D_c_4394_n N_D_c_4396_n N_D_c_4397_n N_D_c_4399_n \
 N_D_c_4400_n N_D_c_4480_p N_D_c_4481_p N_D_c_4482_p N_D_c_4474_p N_D_c_4483_p \
 N_D_c_4469_p N_D_c_4485_p N_D_c_4470_p N_D_c_4310_n N_D_c_4311_n N_D_c_4313_n \
 N_D_c_4402_n N_D_c_4403_n N_D_c_4405_n N_D_c_4475_p N_D_c_4476_p N_D_c_4467_p \
 )  PM_TMRDFFQNX1\%D
x_PM_TMRDFFQNX1\%noxref_14 ( N_noxref_14_c_4694_n N_noxref_14_c_4696_n \
 N_noxref_14_c_4724_p N_noxref_14_c_4697_n N_noxref_14_c_4641_n \
 N_noxref_14_c_4659_n N_noxref_14_c_4663_n N_noxref_14_c_4665_n \
 N_noxref_14_c_4642_n N_noxref_14_c_4835_p N_noxref_14_c_4643_n \
 N_noxref_14_c_4644_n N_noxref_14_c_4713_n N_noxref_14_M28_noxref_g \
 N_noxref_14_M31_noxref_g N_noxref_14_M101_noxref_g N_noxref_14_M102_noxref_g \
 N_noxref_14_M107_noxref_g N_noxref_14_M108_noxref_g N_noxref_14_c_4749_p \
 N_noxref_14_c_4750_p N_noxref_14_c_4751_p N_noxref_14_c_4792_p \
 N_noxref_14_c_4770_p N_noxref_14_c_4794_p N_noxref_14_c_4771_p \
 N_noxref_14_c_4645_n N_noxref_14_c_4647_n N_noxref_14_c_4648_n \
 N_noxref_14_c_4649_n N_noxref_14_c_4650_n N_noxref_14_c_4651_n \
 N_noxref_14_c_4652_n N_noxref_14_c_4654_n N_noxref_14_c_4744_p \
 N_noxref_14_c_4754_p N_noxref_14_c_4739_p N_noxref_14_c_4682_n \
 N_noxref_14_M30_noxref_d N_noxref_14_M103_noxref_d N_noxref_14_M105_noxref_d ) \
 PM_TMRDFFQNX1\%noxref_14
x_PM_TMRDFFQNX1\%noxref_15 ( N_noxref_15_c_4936_p N_noxref_15_c_4921_n \
 N_noxref_15_c_4890_n N_noxref_15_c_4894_n N_noxref_15_c_4896_n \
 N_noxref_15_c_4874_n N_noxref_15_c_5000_p N_noxref_15_c_4875_n \
 N_noxref_15_c_4876_n N_noxref_15_c_4985_p N_noxref_15_M33_noxref_g \
 N_noxref_15_M111_noxref_g N_noxref_15_M112_noxref_g N_noxref_15_c_4877_n \
 N_noxref_15_c_4879_n N_noxref_15_c_4880_n N_noxref_15_c_4881_n \
 N_noxref_15_c_4882_n N_noxref_15_c_4883_n N_noxref_15_c_4884_n \
 N_noxref_15_c_4886_n N_noxref_15_c_4909_n N_noxref_15_M32_noxref_d \
 N_noxref_15_M107_noxref_d N_noxref_15_M109_noxref_d )  PM_TMRDFFQNX1\%noxref_15
x_PM_TMRDFFQNX1\%CLK ( N_CLK_c_5034_n N_CLK_c_5052_n N_CLK_c_5053_n \
 N_CLK_c_5060_n N_CLK_c_5061_n N_CLK_c_5079_n N_CLK_c_5092_n N_CLK_c_5111_n \
 N_CLK_c_5112_n N_CLK_c_5130_n CLK CLK CLK CLK CLK CLK CLK CLK CLK CLK CLK CLK \
 CLK CLK CLK CLK CLK CLK CLK N_CLK_c_5025_n N_CLK_c_5203_n N_CLK_c_5026_n \
 N_CLK_c_5028_n N_CLK_c_5363_n N_CLK_c_5029_n N_CLK_c_5031_n N_CLK_c_5543_n \
 N_CLK_c_5032_n N_CLK_M1_noxref_g N_CLK_M8_noxref_g N_CLK_M14_noxref_g \
 N_CLK_M21_noxref_g N_CLK_M27_noxref_g N_CLK_M34_noxref_g N_CLK_M47_noxref_g \
 N_CLK_M48_noxref_g N_CLK_M61_noxref_g N_CLK_M62_noxref_g N_CLK_M73_noxref_g \
 N_CLK_M74_noxref_g N_CLK_M87_noxref_g N_CLK_M88_noxref_g N_CLK_M99_noxref_g \
 N_CLK_M100_noxref_g N_CLK_M113_noxref_g N_CLK_M114_noxref_g N_CLK_c_5300_n \
 N_CLK_c_5303_n N_CLK_c_5698_p N_CLK_c_5705_p N_CLK_c_5187_n N_CLK_c_5188_n \
 N_CLK_c_5189_n N_CLK_c_5190_n N_CLK_c_5193_n N_CLK_c_5212_n N_CLK_c_5215_n \
 N_CLK_c_5217_n N_CLK_c_5313_n N_CLK_c_5315_n N_CLK_c_5316_n N_CLK_c_5220_n \
 N_CLK_c_5221_n N_CLK_c_5461_n N_CLK_c_5464_n N_CLK_c_5727_p N_CLK_c_5734_p \
 N_CLK_c_5347_n N_CLK_c_5348_n N_CLK_c_5349_n N_CLK_c_5350_n N_CLK_c_5353_n \
 N_CLK_c_5372_n N_CLK_c_5375_n N_CLK_c_5377_n N_CLK_c_5474_n N_CLK_c_5476_n \
 N_CLK_c_5477_n N_CLK_c_5380_n N_CLK_c_5381_n N_CLK_c_5627_p N_CLK_c_5629_p \
 N_CLK_c_5756_p N_CLK_c_5763_p N_CLK_c_5529_n N_CLK_c_5530_n N_CLK_c_5531_n \
 N_CLK_c_5532_n N_CLK_c_5535_n N_CLK_c_5552_n N_CLK_c_5555_n N_CLK_c_5557_n \
 N_CLK_c_5596_p N_CLK_c_5647_p N_CLK_c_5614_p N_CLK_c_5560_n N_CLK_c_5561_n \
 N_CLK_c_5194_n N_CLK_c_5222_n N_CLK_c_5326_n N_CLK_c_5224_n N_CLK_c_5354_n \
 N_CLK_c_5382_n N_CLK_c_5486_n N_CLK_c_5384_n N_CLK_c_5536_n N_CLK_c_5562_n \
 N_CLK_c_5621_p N_CLK_c_5564_n )  PM_TMRDFFQNX1\%CLK
x_PM_TMRDFFQNX1\%noxref_17 ( N_noxref_17_c_5873_n N_noxref_17_c_5874_n \
 N_noxref_17_c_5847_n N_noxref_17_c_5848_n N_noxref_17_c_5801_n \
 N_noxref_17_c_5805_n N_noxref_17_c_5807_n N_noxref_17_c_5811_n \
 N_noxref_17_c_5777_n N_noxref_17_c_5990_p N_noxref_17_c_5815_n \
 N_noxref_17_c_5778_n N_noxref_17_c_5779_n N_noxref_17_c_5934_n \
 N_noxref_17_c_5898_n N_noxref_17_M29_noxref_g N_noxref_17_M35_noxref_g \
 N_noxref_17_M103_noxref_g N_noxref_17_M104_noxref_g N_noxref_17_M115_noxref_g \
 N_noxref_17_M116_noxref_g N_noxref_17_c_5780_n N_noxref_17_c_5782_n \
 N_noxref_17_c_5783_n N_noxref_17_c_5784_n N_noxref_17_c_5785_n \
 N_noxref_17_c_5786_n N_noxref_17_c_5787_n N_noxref_17_c_5789_n \
 N_noxref_17_c_5790_n N_noxref_17_c_5792_n N_noxref_17_c_5793_n \
 N_noxref_17_c_5794_n N_noxref_17_c_5795_n N_noxref_17_c_5796_n \
 N_noxref_17_c_5797_n N_noxref_17_c_5799_n N_noxref_17_c_5830_n \
 N_noxref_17_c_5831_n N_noxref_17_M28_noxref_d N_noxref_17_M97_noxref_d \
 N_noxref_17_M99_noxref_d N_noxref_17_M101_noxref_d )  PM_TMRDFFQNX1\%noxref_17
x_PM_TMRDFFQNX1\%noxref_18 ( N_noxref_18_c_6048_n N_noxref_18_c_6054_n \
 N_noxref_18_c_6057_n N_noxref_18_c_6061_n N_noxref_18_c_6063_n \
 N_noxref_18_c_6032_n N_noxref_18_c_6167_p N_noxref_18_c_6033_n \
 N_noxref_18_c_6034_n N_noxref_18_c_6153_p N_noxref_18_M37_noxref_g \
 N_noxref_18_M119_noxref_g N_noxref_18_M120_noxref_g N_noxref_18_c_6035_n \
 N_noxref_18_c_6037_n N_noxref_18_c_6038_n N_noxref_18_c_6039_n \
 N_noxref_18_c_6040_n N_noxref_18_c_6041_n N_noxref_18_c_6042_n \
 N_noxref_18_c_6044_n N_noxref_18_c_6076_n N_noxref_18_M36_noxref_d \
 N_noxref_18_M115_noxref_d N_noxref_18_M117_noxref_d )  PM_TMRDFFQNX1\%noxref_18
x_PM_TMRDFFQNX1\%noxref_19 ( N_noxref_19_c_6210_n N_noxref_19_c_6212_n \
 N_noxref_19_c_6213_n N_noxref_19_c_6284_n N_noxref_19_c_6215_n \
 N_noxref_19_c_6222_n N_noxref_19_c_6190_n N_noxref_19_c_6286_n \
 N_noxref_19_c_6191_n N_noxref_19_c_6230_n N_noxref_19_c_6234_n \
 N_noxref_19_c_6236_n N_noxref_19_c_6193_n N_noxref_19_c_6504_p \
 N_noxref_19_c_6194_n N_noxref_19_c_6440_n N_noxref_19_c_6195_n \
 N_noxref_19_c_6381_n N_noxref_19_M26_noxref_g N_noxref_19_M32_noxref_g \
 N_noxref_19_M38_noxref_g N_noxref_19_M97_noxref_g N_noxref_19_M98_noxref_g \
 N_noxref_19_M109_noxref_g N_noxref_19_M110_noxref_g N_noxref_19_M121_noxref_g \
 N_noxref_19_M122_noxref_g N_noxref_19_c_6197_n N_noxref_19_c_6199_n \
 N_noxref_19_c_6200_n N_noxref_19_c_6201_n N_noxref_19_c_6202_n \
 N_noxref_19_c_6203_n N_noxref_19_c_6204_n N_noxref_19_c_6206_n \
 N_noxref_19_c_6395_n N_noxref_19_c_6258_n N_noxref_19_c_6295_n \
 N_noxref_19_c_6298_n N_noxref_19_c_6300_n N_noxref_19_c_6332_n \
 N_noxref_19_c_6334_n N_noxref_19_c_6335_n N_noxref_19_c_6303_n \
 N_noxref_19_c_6304_n N_noxref_19_c_6449_n N_noxref_19_c_6452_n \
 N_noxref_19_c_6454_n N_noxref_19_c_6465_p N_noxref_19_c_6494_p \
 N_noxref_19_c_6478_p N_noxref_19_c_6457_n N_noxref_19_c_6458_n \
 N_noxref_19_c_6305_n N_noxref_19_c_6341_n N_noxref_19_c_6307_n \
 N_noxref_19_c_6459_n N_noxref_19_c_6485_p N_noxref_19_c_6461_n \
 N_noxref_19_M34_noxref_d N_noxref_19_M111_noxref_d N_noxref_19_M113_noxref_d ) \
 PM_TMRDFFQNX1\%noxref_19
x_PM_TMRDFFQNX1\%noxref_20 ( N_noxref_20_c_6592_n N_noxref_20_c_6653_n \
 N_noxref_20_c_6593_n N_noxref_20_c_6595_n N_noxref_20_c_6597_n \
 N_noxref_20_c_6602_n N_noxref_20_c_6655_n N_noxref_20_c_6560_n \
 N_noxref_20_c_6608_n N_noxref_20_c_6612_n N_noxref_20_c_6614_n \
 N_noxref_20_c_6562_n N_noxref_20_c_6762_p N_noxref_20_c_6563_n \
 N_noxref_20_c_6564_n N_noxref_20_c_6567_n N_noxref_20_c_6743_n \
 N_noxref_20_M36_noxref_g N_noxref_20_M39_noxref_g N_noxref_20_M41_noxref_g \
 N_noxref_20_M117_noxref_g N_noxref_20_M118_noxref_g N_noxref_20_M123_noxref_g \
 N_noxref_20_M124_noxref_g N_noxref_20_M127_noxref_g N_noxref_20_M128_noxref_g \
 N_noxref_20_c_6663_n N_noxref_20_c_6666_n N_noxref_20_c_6668_n \
 N_noxref_20_c_6703_n N_noxref_20_c_6705_n N_noxref_20_c_6706_n \
 N_noxref_20_c_6671_n N_noxref_20_c_6672_n N_noxref_20_c_6569_n \
 N_noxref_20_c_6571_n N_noxref_20_c_6572_n N_noxref_20_c_6573_n \
 N_noxref_20_c_6574_n N_noxref_20_c_6575_n N_noxref_20_c_6775_p \
 N_noxref_20_c_6639_n N_noxref_20_c_6576_n N_noxref_20_c_6578_n \
 N_noxref_20_c_6579_n N_noxref_20_c_6581_n N_noxref_20_c_6844_p \
 N_noxref_20_c_6582_n N_noxref_20_c_6583_n N_noxref_20_c_6584_n \
 N_noxref_20_c_6585_n N_noxref_20_c_6587_n N_noxref_20_c_6673_n \
 N_noxref_20_c_6712_n N_noxref_20_c_6675_n N_noxref_20_c_6588_n \
 N_noxref_20_c_6641_n N_noxref_20_M38_noxref_d N_noxref_20_M119_noxref_d \
 N_noxref_20_M121_noxref_d )  PM_TMRDFFQNX1\%noxref_20
x_PM_TMRDFFQNX1\%noxref_21 ( N_noxref_21_c_6904_n N_noxref_21_c_6909_n \
 N_noxref_21_c_6911_n N_noxref_21_c_6935_n N_noxref_21_c_6938_n \
 N_noxref_21_c_6956_n N_noxref_21_c_7001_n N_noxref_21_c_6939_n \
 N_noxref_21_c_6959_n N_noxref_21_c_6963_n N_noxref_21_c_6965_n \
 N_noxref_21_c_6941_n N_noxref_21_c_7334_p N_noxref_21_c_6942_n \
 N_noxref_21_c_6970_n N_noxref_21_c_6944_n N_noxref_21_c_6946_n \
 N_noxref_21_c_7080_n N_noxref_21_c_7243_p N_noxref_21_M23_noxref_g \
 N_noxref_21_M40_noxref_g N_noxref_21_M44_noxref_g N_noxref_21_M91_noxref_g \
 N_noxref_21_M92_noxref_g N_noxref_21_M125_noxref_g N_noxref_21_M126_noxref_g \
 N_noxref_21_M133_noxref_g N_noxref_21_M134_noxref_g N_noxref_21_c_7009_n \
 N_noxref_21_c_7012_n N_noxref_21_c_7014_n N_noxref_21_c_7046_n \
 N_noxref_21_c_7048_n N_noxref_21_c_7049_n N_noxref_21_c_7017_n \
 N_noxref_21_c_7018_n N_noxref_21_c_7186_n N_noxref_21_c_7189_n \
 N_noxref_21_c_7191_n N_noxref_21_c_6986_n N_noxref_21_c_7274_p \
 N_noxref_21_c_7275_p N_noxref_21_c_7195_n N_noxref_21_c_7196_n \
 N_noxref_21_c_7239_p N_noxref_21_c_7250_p N_noxref_21_c_7241_p \
 N_noxref_21_c_7291_p N_noxref_21_c_7282_p N_noxref_21_c_7252_p \
 N_noxref_21_c_7249_p N_noxref_21_c_7253_p N_noxref_21_c_7019_n \
 N_noxref_21_c_7055_n N_noxref_21_c_7021_n N_noxref_21_c_6948_n \
 N_noxref_21_c_7394_p N_noxref_21_c_6987_n N_noxref_21_c_7226_p \
 N_noxref_21_c_7293_p N_noxref_21_c_7233_p N_noxref_21_M25_noxref_d \
 N_noxref_21_M93_noxref_d N_noxref_21_M95_noxref_d )  PM_TMRDFFQNX1\%noxref_21
x_PM_TMRDFFQNX1\%noxref_22 ( N_noxref_22_c_7406_n N_noxref_22_c_7412_n \
 N_noxref_22_c_7417_n N_noxref_22_c_7421_n N_noxref_22_c_7423_n \
 N_noxref_22_c_7426_n N_noxref_22_c_7452_n N_noxref_22_c_7428_n \
 N_noxref_22_c_7471_p N_noxref_22_M123_noxref_d N_noxref_22_M125_noxref_d \
 N_noxref_22_M127_noxref_s N_noxref_22_M128_noxref_d N_noxref_22_M130_noxref_d \
 )  PM_TMRDFFQNX1\%noxref_22
x_PM_TMRDFFQNX1\%noxref_23 ( N_noxref_23_c_7497_n N_noxref_23_c_7578_n \
 N_noxref_23_c_7498_n N_noxref_23_c_7641_n N_noxref_23_c_7513_n \
 N_noxref_23_c_7514_n N_noxref_23_c_7579_n N_noxref_23_c_7515_n \
 N_noxref_23_c_7540_n N_noxref_23_c_7544_n N_noxref_23_c_7546_n \
 N_noxref_23_c_7517_n N_noxref_23_c_7713_n N_noxref_23_c_7518_n \
 N_noxref_23_c_7519_n N_noxref_23_c_7521_n N_noxref_23_c_7657_n \
 N_noxref_23_M10_noxref_g N_noxref_23_M42_noxref_g N_noxref_23_M43_noxref_g \
 N_noxref_23_M65_noxref_g N_noxref_23_M66_noxref_g N_noxref_23_M129_noxref_g \
 N_noxref_23_M130_noxref_g N_noxref_23_M131_noxref_g N_noxref_23_M132_noxref_g \
 N_noxref_23_c_7587_n N_noxref_23_c_7590_n N_noxref_23_c_7592_n \
 N_noxref_23_c_7624_n N_noxref_23_c_7626_n N_noxref_23_c_7627_n \
 N_noxref_23_c_7595_n N_noxref_23_c_7596_n N_noxref_23_c_7789_n \
 N_noxref_23_c_7792_n N_noxref_23_c_7863_p N_noxref_23_c_7794_n \
 N_noxref_23_c_7891_p N_noxref_23_c_7892_p N_noxref_23_c_7565_n \
 N_noxref_23_c_7798_n N_noxref_23_c_7799_n N_noxref_23_c_7800_n \
 N_noxref_23_c_7522_n N_noxref_23_c_7523_n N_noxref_23_c_7525_n \
 N_noxref_23_c_7828_n N_noxref_23_c_7526_n N_noxref_23_c_7527_n \
 N_noxref_23_c_7528_n N_noxref_23_c_7830_n N_noxref_23_c_7566_n \
 N_noxref_23_c_7529_n N_noxref_23_c_7531_n N_noxref_23_c_7597_n \
 N_noxref_23_c_7633_n N_noxref_23_c_7599_n N_noxref_23_c_7532_n \
 N_noxref_23_M12_noxref_d N_noxref_23_M67_noxref_d N_noxref_23_M69_noxref_d )  \
 PM_TMRDFFQNX1\%noxref_23
x_PM_TMRDFFQNX1\%noxref_24 ( N_noxref_24_c_7956_n N_noxref_24_c_7960_n \
 N_noxref_24_c_7971_n N_noxref_24_c_7962_n N_noxref_24_c_7963_n \
 N_noxref_24_c_7964_n N_noxref_24_c_7983_n N_noxref_24_c_7966_n \
 N_noxref_24_c_7984_n N_noxref_24_M127_noxref_d N_noxref_24_M129_noxref_d \
 N_noxref_24_M131_noxref_s N_noxref_24_M132_noxref_d N_noxref_24_M134_noxref_d \
 )  PM_TMRDFFQNX1\%noxref_24
x_PM_TMRDFFQNX1\%QN ( N_QN_c_8045_n N_QN_c_8052_n N_QN_c_8053_n N_QN_c_8059_n \
 QN QN QN QN QN QN QN QN N_QN_c_8112_n N_QN_c_8074_n N_QN_c_8075_n \
 N_QN_c_8061_n N_QN_c_8119_n N_QN_c_8120_n N_QN_M40_noxref_d N_QN_M42_noxref_d \
 N_QN_M44_noxref_d N_QN_M131_noxref_d N_QN_M133_noxref_d )  PM_TMRDFFQNX1\%QN
x_PM_TMRDFFQNX1\%noxref_26 ( N_noxref_26_c_8231_n N_noxref_26_c_8214_n \
 N_noxref_26_c_8218_n N_noxref_26_c_8221_n N_noxref_26_c_8239_n \
 N_noxref_26_M0_noxref_s )  PM_TMRDFFQNX1\%noxref_26
x_PM_TMRDFFQNX1\%noxref_27 ( N_noxref_27_c_8261_n N_noxref_27_c_8263_n \
 N_noxref_27_c_8266_n N_noxref_27_c_8269_n N_noxref_27_c_8280_n \
 N_noxref_27_M1_noxref_d N_noxref_27_M2_noxref_s )  PM_TMRDFFQNX1\%noxref_27
x_PM_TMRDFFQNX1\%noxref_28 ( N_noxref_28_c_8333_n N_noxref_28_c_8314_n \
 N_noxref_28_c_8318_n N_noxref_28_c_8321_n N_noxref_28_c_8322_n \
 N_noxref_28_c_8325_n N_noxref_28_M3_noxref_s )  PM_TMRDFFQNX1\%noxref_28
x_PM_TMRDFFQNX1\%noxref_29 ( N_noxref_29_c_8387_n N_noxref_29_c_8368_n \
 N_noxref_29_c_8372_n N_noxref_29_c_8375_n N_noxref_29_c_8376_n \
 N_noxref_29_c_8379_n N_noxref_29_M5_noxref_s )  PM_TMRDFFQNX1\%noxref_29
x_PM_TMRDFFQNX1\%noxref_30 ( N_noxref_30_c_8439_n N_noxref_30_c_8420_n \
 N_noxref_30_c_8424_n N_noxref_30_c_8427_n N_noxref_30_c_8428_n \
 N_noxref_30_c_8431_n N_noxref_30_M7_noxref_s )  PM_TMRDFFQNX1\%noxref_30
x_PM_TMRDFFQNX1\%noxref_31 ( N_noxref_31_c_8491_n N_noxref_31_c_8472_n \
 N_noxref_31_c_8476_n N_noxref_31_c_8479_n N_noxref_31_c_8480_n \
 N_noxref_31_c_8483_n N_noxref_31_M9_noxref_s )  PM_TMRDFFQNX1\%noxref_31
x_PM_TMRDFFQNX1\%noxref_32 ( N_noxref_32_c_8543_n N_noxref_32_c_8524_n \
 N_noxref_32_c_8528_n N_noxref_32_c_8531_n N_noxref_32_c_8532_n \
 N_noxref_32_c_8535_n N_noxref_32_M11_noxref_s )  PM_TMRDFFQNX1\%noxref_32
x_PM_TMRDFFQNX1\%noxref_33 ( N_noxref_33_c_8593_n N_noxref_33_c_8576_n \
 N_noxref_33_c_8580_n N_noxref_33_c_8583_n N_noxref_33_c_8605_n \
 N_noxref_33_M13_noxref_s )  PM_TMRDFFQNX1\%noxref_33
x_PM_TMRDFFQNX1\%noxref_34 ( N_noxref_34_c_8626_n N_noxref_34_c_8628_n \
 N_noxref_34_c_8631_n N_noxref_34_c_8634_n N_noxref_34_c_8644_n \
 N_noxref_34_M14_noxref_d N_noxref_34_M15_noxref_s )  PM_TMRDFFQNX1\%noxref_34
x_PM_TMRDFFQNX1\%noxref_35 ( N_noxref_35_c_8698_n N_noxref_35_c_8679_n \
 N_noxref_35_c_8683_n N_noxref_35_c_8686_n N_noxref_35_c_8687_n \
 N_noxref_35_c_8690_n N_noxref_35_M16_noxref_s )  PM_TMRDFFQNX1\%noxref_35
x_PM_TMRDFFQNX1\%noxref_36 ( N_noxref_36_c_8752_n N_noxref_36_c_8733_n \
 N_noxref_36_c_8737_n N_noxref_36_c_8740_n N_noxref_36_c_8741_n \
 N_noxref_36_c_8744_n N_noxref_36_M18_noxref_s )  PM_TMRDFFQNX1\%noxref_36
x_PM_TMRDFFQNX1\%noxref_37 ( N_noxref_37_c_8804_n N_noxref_37_c_8785_n \
 N_noxref_37_c_8789_n N_noxref_37_c_8792_n N_noxref_37_c_8793_n \
 N_noxref_37_c_8796_n N_noxref_37_M20_noxref_s )  PM_TMRDFFQNX1\%noxref_37
x_PM_TMRDFFQNX1\%noxref_38 ( N_noxref_38_c_8856_n N_noxref_38_c_8837_n \
 N_noxref_38_c_8841_n N_noxref_38_c_8844_n N_noxref_38_c_8845_n \
 N_noxref_38_c_8848_n N_noxref_38_M22_noxref_s )  PM_TMRDFFQNX1\%noxref_38
x_PM_TMRDFFQNX1\%noxref_39 ( N_noxref_39_c_8910_n N_noxref_39_c_8891_n \
 N_noxref_39_c_8895_n N_noxref_39_c_8898_n N_noxref_39_c_8899_n \
 N_noxref_39_c_8902_n N_noxref_39_M24_noxref_s )  PM_TMRDFFQNX1\%noxref_39
x_PM_TMRDFFQNX1\%noxref_40 ( N_noxref_40_c_8970_n N_noxref_40_c_8945_n \
 N_noxref_40_c_8949_n N_noxref_40_c_8952_n N_noxref_40_c_8963_n \
 N_noxref_40_M26_noxref_s )  PM_TMRDFFQNX1\%noxref_40
x_PM_TMRDFFQNX1\%noxref_41 ( N_noxref_41_c_8995_n N_noxref_41_c_8997_n \
 N_noxref_41_c_9000_n N_noxref_41_c_9003_n N_noxref_41_c_9013_n \
 N_noxref_41_M27_noxref_d N_noxref_41_M28_noxref_s )  PM_TMRDFFQNX1\%noxref_41
x_PM_TMRDFFQNX1\%noxref_42 ( N_noxref_42_c_9076_n N_noxref_42_c_9048_n \
 N_noxref_42_c_9052_n N_noxref_42_c_9055_n N_noxref_42_c_9056_n \
 N_noxref_42_c_9059_n N_noxref_42_M29_noxref_s )  PM_TMRDFFQNX1\%noxref_42