// File: TMRDFFSNRNQX1.spi.pex
// Created: Tue Oct 15 15:53:14 2024
// Program "Calibre xRC"
// Version "v2023.2_27.15"
// Nominal Temperature: 30C
// Circuit Temperature: 30C
// 
simulator lang=spectre
subckt PM_TMRDFFSNRNQX1\%GND ( 1 167 171 174 179 189 197 207 215 225 233 243 \
 251 261 269 279 287 297 305 315 323 333 341 351 359 369 377 387 395 405 413 \
 423 431 441 449 459 467 477 485 495 503 511 517 523 531 542 547 551 564 566 \
 568 570 572 574 576 578 580 582 584 586 588 590 592 594 596 598 600 603 605 \
 612 619 620 621 622 623 624 625 626 627 628 629 630 631 632 633 634 635 636 \
 637 638 639 640 )
c1096 ( 640 0 ) capacitor c=0.0584744f //x=97.065 //y=0.37
c1097 ( 639 0 ) capacitor c=0.0215012f //x=94.23 //y=0.865
c1098 ( 638 0 ) capacitor c=0.0215012f //x=90.9 //y=0.865
c1099 ( 637 0 ) capacitor c=0.0207058f //x=87.57 //y=0.865
c1100 ( 636 0 ) capacitor c=0.0225954f //x=82.655 //y=0.875
c1101 ( 635 0 ) capacitor c=0.0225954f //x=77.845 //y=0.875
c1102 ( 634 0 ) capacitor c=0.0225954f //x=73.035 //y=0.875
c1103 ( 633 0 ) capacitor c=0.0225954f //x=68.225 //y=0.875
c1104 ( 632 0 ) capacitor c=0.0225954f //x=63.415 //y=0.875
c1105 ( 631 0 ) capacitor c=0.0225954f //x=58.605 //y=0.875
c1106 ( 630 0 ) capacitor c=0.0225954f //x=53.795 //y=0.875
c1107 ( 629 0 ) capacitor c=0.0225954f //x=48.985 //y=0.875
c1108 ( 628 0 ) capacitor c=0.0225954f //x=44.175 //y=0.875
c1109 ( 627 0 ) capacitor c=0.0225954f //x=39.365 //y=0.875
c1110 ( 626 0 ) capacitor c=0.0225954f //x=34.555 //y=0.875
c1111 ( 625 0 ) capacitor c=0.0225954f //x=29.745 //y=0.875
c1112 ( 624 0 ) capacitor c=0.0225954f //x=24.935 //y=0.875
c1113 ( 623 0 ) capacitor c=0.0225954f //x=20.125 //y=0.875
c1114 ( 622 0 ) capacitor c=0.0225954f //x=15.315 //y=0.875
c1115 ( 621 0 ) capacitor c=0.0225954f //x=10.505 //y=0.875
c1116 ( 620 0 ) capacitor c=0.0225954f //x=5.695 //y=0.875
c1117 ( 619 0 ) capacitor c=0.022675f //x=0.885 //y=0.875
c1118 ( 612 0 ) capacitor c=0.234368f //x=98.17 //y=0
c1119 ( 605 0 ) capacitor c=0.101943f //x=96.57 //y=0
c1120 ( 604 0 ) capacitor c=0.00440095f //x=94.42 //y=0
c1121 ( 603 0 ) capacitor c=0.101195f //x=93.24 //y=0
c1122 ( 602 0 ) capacitor c=0.00440095f //x=91.02 //y=0
c1123 ( 600 0 ) capacitor c=0.116097f //x=89.91 //y=0
c1124 ( 599 0 ) capacitor c=0.00440095f //x=87.76 //y=0
c1125 ( 598 0 ) capacitor c=0.107313f //x=86.58 //y=0
c1126 ( 597 0 ) capacitor c=0.00440144f //x=82.845 //y=0
c1127 ( 596 0 ) capacitor c=0.106956f //x=81.77 //y=0
c1128 ( 595 0 ) capacitor c=0.00440144f //x=78.035 //y=0
c1129 ( 594 0 ) capacitor c=0.106903f //x=76.96 //y=0
c1130 ( 593 0 ) capacitor c=0.00440144f //x=73.225 //y=0
c1131 ( 592 0 ) capacitor c=0.107052f //x=72.15 //y=0
c1132 ( 591 0 ) capacitor c=0.00440144f //x=68.415 //y=0
c1133 ( 590 0 ) capacitor c=0.107294f //x=67.34 //y=0
c1134 ( 589 0 ) capacitor c=0.00440144f //x=63.605 //y=0
c1135 ( 588 0 ) capacitor c=0.10703f //x=62.53 //y=0
c1136 ( 587 0 ) capacitor c=0.00440144f //x=58.795 //y=0
c1137 ( 586 0 ) capacitor c=0.107024f //x=57.72 //y=0
c1138 ( 585 0 ) capacitor c=0.00440144f //x=53.985 //y=0
c1139 ( 584 0 ) capacitor c=0.10703f //x=52.91 //y=0
c1140 ( 583 0 ) capacitor c=0.00440144f //x=49.175 //y=0
c1141 ( 582 0 ) capacitor c=0.106903f //x=48.1 //y=0
c1142 ( 581 0 ) capacitor c=0.00440144f //x=44.365 //y=0
c1143 ( 580 0 ) capacitor c=0.107052f //x=43.29 //y=0
c1144 ( 579 0 ) capacitor c=0.00440144f //x=39.555 //y=0
c1145 ( 578 0 ) capacitor c=0.107294f //x=38.48 //y=0
c1146 ( 577 0 ) capacitor c=0.00440144f //x=34.745 //y=0
c1147 ( 576 0 ) capacitor c=0.10703f //x=33.67 //y=0
c1148 ( 575 0 ) capacitor c=0.00440144f //x=29.935 //y=0
c1149 ( 574 0 ) capacitor c=0.107024f //x=28.86 //y=0
c1150 ( 573 0 ) capacitor c=0.00440144f //x=25.125 //y=0
c1151 ( 572 0 ) capacitor c=0.10703f //x=24.05 //y=0
c1152 ( 571 0 ) capacitor c=0.00440144f //x=20.315 //y=0
c1153 ( 570 0 ) capacitor c=0.106903f //x=19.24 //y=0
c1154 ( 569 0 ) capacitor c=0.00440144f //x=15.505 //y=0
c1155 ( 568 0 ) capacitor c=0.107052f //x=14.43 //y=0
c1156 ( 567 0 ) capacitor c=0.00440144f //x=10.695 //y=0
c1157 ( 566 0 ) capacitor c=0.107294f //x=9.62 //y=0
c1158 ( 565 0 ) capacitor c=0.00440144f //x=5.885 //y=0
c1159 ( 564 0 ) capacitor c=0.10703f //x=4.81 //y=0
c1160 ( 563 0 ) capacitor c=0.00440144f //x=1.075 //y=0
c1161 ( 554 0 ) capacitor c=0.00583665f //x=98.17 //y=0.45
c1162 ( 551 0 ) capacitor c=0.00542558f //x=98.085 //y=0.535
c1163 ( 550 0 ) capacitor c=0.00479856f //x=97.685 //y=0.45
c1164 ( 547 0 ) capacitor c=0.00707849f //x=97.6 //y=0.535
c1165 ( 542 0 ) capacitor c=0.00588377f //x=97.2 //y=0.45
c1166 ( 539 0 ) capacitor c=0.0190475f //x=97.115 //y=0
c1167 ( 531 0 ) capacitor c=0.0749789f //x=96.4 //y=0
c1168 ( 523 0 ) capacitor c=0.0389876f //x=94.335 //y=0
c1169 ( 517 0 ) capacitor c=0.0716428f //x=93.07 //y=0
c1170 ( 511 0 ) capacitor c=0.0388276f //x=91.005 //y=0
c1171 ( 503 0 ) capacitor c=0.0717274f //x=89.74 //y=0
c1172 ( 495 0 ) capacitor c=0.039094f //x=87.675 //y=0
c1173 ( 485 0 ) capacitor c=0.133361f //x=86.41 //y=0
c1174 ( 477 0 ) capacitor c=0.0339325f //x=82.76 //y=0
c1175 ( 467 0 ) capacitor c=0.133559f //x=81.6 //y=0
c1176 ( 459 0 ) capacitor c=0.0339325f //x=77.95 //y=0
c1177 ( 449 0 ) capacitor c=0.133561f //x=76.79 //y=0
c1178 ( 441 0 ) capacitor c=0.0339325f //x=73.14 //y=0
c1179 ( 431 0 ) capacitor c=0.133362f //x=71.98 //y=0
c1180 ( 423 0 ) capacitor c=0.0339325f //x=68.33 //y=0
c1181 ( 413 0 ) capacitor c=0.133362f //x=67.17 //y=0
c1182 ( 405 0 ) capacitor c=0.0339325f //x=63.52 //y=0
c1183 ( 395 0 ) capacitor c=0.133362f //x=62.36 //y=0
c1184 ( 387 0 ) capacitor c=0.0339325f //x=58.71 //y=0
c1185 ( 377 0 ) capacitor c=0.133362f //x=57.55 //y=0
c1186 ( 369 0 ) capacitor c=0.0339325f //x=53.9 //y=0
c1187 ( 359 0 ) capacitor c=0.133362f //x=52.74 //y=0
c1188 ( 351 0 ) capacitor c=0.0339325f //x=49.09 //y=0
c1189 ( 341 0 ) capacitor c=0.133561f //x=47.93 //y=0
c1190 ( 333 0 ) capacitor c=0.0339325f //x=44.28 //y=0
c1191 ( 323 0 ) capacitor c=0.133362f //x=43.12 //y=0
c1192 ( 315 0 ) capacitor c=0.0339325f //x=39.47 //y=0
c1193 ( 305 0 ) capacitor c=0.133362f //x=38.31 //y=0
c1194 ( 297 0 ) capacitor c=0.0339325f //x=34.66 //y=0
c1195 ( 287 0 ) capacitor c=0.133362f //x=33.5 //y=0
c1196 ( 279 0 ) capacitor c=0.0339325f //x=29.85 //y=0
c1197 ( 269 0 ) capacitor c=0.133362f //x=28.69 //y=0
c1198 ( 261 0 ) capacitor c=0.0339325f //x=25.04 //y=0
c1199 ( 251 0 ) capacitor c=0.133362f //x=23.88 //y=0
c1200 ( 243 0 ) capacitor c=0.0339325f //x=20.23 //y=0
c1201 ( 233 0 ) capacitor c=0.133561f //x=19.07 //y=0
c1202 ( 225 0 ) capacitor c=0.0339325f //x=15.42 //y=0
c1203 ( 215 0 ) capacitor c=0.133362f //x=14.26 //y=0
c1204 ( 207 0 ) capacitor c=0.0339325f //x=10.61 //y=0
c1205 ( 197 0 ) capacitor c=0.133362f //x=9.45 //y=0
c1206 ( 189 0 ) capacitor c=0.0339325f //x=5.8 //y=0
c1207 ( 179 0 ) capacitor c=0.133402f //x=4.64 //y=0
c1208 ( 174 0 ) capacitor c=0.178058f //x=0.74 //y=0
c1209 ( 171 0 ) capacitor c=0.0367385f //x=0.99 //y=0
c1210 ( 167 0 ) capacitor c=2.93672f //x=98.05 //y=0
r1211 (  611 612 ) resistor r=4.30252 //w=0.357 //l=0.12 //layer=li \
 //thickness=0.1 //x=98.05 //y=0 //x2=98.17 //y2=0
r1212 (  609 611 ) resistor r=13.0868 //w=0.357 //l=0.365 //layer=li \
 //thickness=0.1 //x=97.685 //y=0 //x2=98.05 //y2=0
r1213 (  608 609 ) resistor r=13.4454 //w=0.357 //l=0.375 //layer=li \
 //thickness=0.1 //x=97.31 //y=0 //x2=97.685 //y2=0
r1214 (  606 608 ) resistor r=3.94398 //w=0.357 //l=0.11 //layer=li \
 //thickness=0.1 //x=97.2 //y=0 //x2=97.31 //y2=0
r1215 (  555 640 ) resistor r=5.4201 //w=0.17 //l=0.085 //layer=li \
 //thickness=0.1 //x=98.17 //y=0.62 //x2=98.17 //y2=0.535
r1216 (  555 640 ) resistor r=41.4118 //w=0.187 //l=0.605 //layer=li \
 //thickness=0.1 //x=98.17 //y=0.62 //x2=98.17 //y2=1.225
r1217 (  554 640 ) resistor r=5.4201 //w=0.17 //l=0.085 //layer=li \
 //thickness=0.1 //x=98.17 //y=0.45 //x2=98.17 //y2=0.535
r1218 (  553 612 ) resistor r=5.03728 //w=0.34 //l=0.17 //layer=li \
 //thickness=0.1 //x=98.17 //y=0.17 //x2=98.17 //y2=0
r1219 (  553 554 ) resistor r=19.1658 //w=0.187 //l=0.28 //layer=li \
 //thickness=0.1 //x=98.17 //y=0.17 //x2=98.17 //y2=0.45
r1220 (  552 640 ) resistor r=5.4201 //w=0.17 //l=0.085 //layer=li \
 //thickness=0.1 //x=97.77 //y=0.535 //x2=97.685 //y2=0.535
r1221 (  551 640 ) resistor r=1.40859 //w=0.34 //l=0.085 //layer=li \
 //thickness=0.1 //x=98.085 //y=0.535 //x2=98.17 //y2=0.535
r1222 (  551 552 ) resistor r=21.5615 //w=0.187 //l=0.315 //layer=li \
 //thickness=0.1 //x=98.085 //y=0.535 //x2=97.77 //y2=0.535
r1223 (  550 640 ) resistor r=1.40859 //w=0.34 //l=0.085 //layer=li \
 //thickness=0.1 //x=97.685 //y=0.45 //x2=97.685 //y2=0.535
r1224 (  549 609 ) resistor r=5.03728 //w=0.34 //l=0.17 //layer=li \
 //thickness=0.1 //x=97.685 //y=0.17 //x2=97.685 //y2=0
r1225 (  549 550 ) resistor r=19.1658 //w=0.187 //l=0.28 //layer=li \
 //thickness=0.1 //x=97.685 //y=0.17 //x2=97.685 //y2=0.45
r1226 (  548 640 ) resistor r=1.40859 //w=0.34 //l=0.085 //layer=li \
 //thickness=0.1 //x=97.285 //y=0.535 //x2=97.2 //y2=0.535
r1227 (  547 640 ) resistor r=5.4201 //w=0.17 //l=0.085 //layer=li \
 //thickness=0.1 //x=97.6 //y=0.535 //x2=97.685 //y2=0.535
r1228 (  547 548 ) resistor r=21.5615 //w=0.187 //l=0.315 //layer=li \
 //thickness=0.1 //x=97.6 //y=0.535 //x2=97.285 //y2=0.535
r1229 (  543 640 ) resistor r=5.4201 //w=0.17 //l=0.085 //layer=li \
 //thickness=0.1 //x=97.2 //y=0.62 //x2=97.2 //y2=0.535
r1230 (  543 640 ) resistor r=41.4118 //w=0.187 //l=0.605 //layer=li \
 //thickness=0.1 //x=97.2 //y=0.62 //x2=97.2 //y2=1.225
r1231 (  542 640 ) resistor r=5.4201 //w=0.17 //l=0.085 //layer=li \
 //thickness=0.1 //x=97.2 //y=0.45 //x2=97.2 //y2=0.535
r1232 (  541 606 ) resistor r=5.03728 //w=0.34 //l=0.17 //layer=li \
 //thickness=0.1 //x=97.2 //y=0.17 //x2=97.2 //y2=0
r1233 (  541 542 ) resistor r=19.1658 //w=0.187 //l=0.28 //layer=li \
 //thickness=0.1 //x=97.2 //y=0.17 //x2=97.2 //y2=0.45
r1234 (  540 605 ) resistor r=5.4201 //w=0.34 //l=0.17 //layer=li \
 //thickness=0.1 //x=96.74 //y=0 //x2=96.57 //y2=0
r1235 (  539 606 ) resistor r=3.04762 //w=0.357 //l=0.085 //layer=li \
 //thickness=0.1 //x=97.115 //y=0 //x2=97.2 //y2=0
r1236 (  539 540 ) resistor r=13.4454 //w=0.357 //l=0.375 //layer=li \
 //thickness=0.1 //x=97.115 //y=0 //x2=96.74 //y2=0
r1237 (  534 536 ) resistor r=39.7983 //w=0.357 //l=1.11 //layer=li \
 //thickness=0.1 //x=94.72 //y=0 //x2=95.83 //y2=0
r1238 (  532 604 ) resistor r=2.94794 //w=0.34 //l=0.085 //layer=li \
 //thickness=0.1 //x=94.505 //y=0 //x2=94.42 //y2=0
r1239 (  532 534 ) resistor r=7.70868 //w=0.357 //l=0.215 //layer=li \
 //thickness=0.1 //x=94.505 //y=0 //x2=94.72 //y2=0
r1240 (  531 605 ) resistor r=5.4201 //w=0.34 //l=0.17 //layer=li \
 //thickness=0.1 //x=96.4 //y=0 //x2=96.57 //y2=0
r1241 (  531 536 ) resistor r=20.437 //w=0.357 //l=0.57 //layer=li \
 //thickness=0.1 //x=96.4 //y=0 //x2=95.83 //y2=0
r1242 (  527 604 ) resistor r=4.11603 //w=0.68 //l=0.17 //layer=li \
 //thickness=0.1 //x=94.42 //y=0.17 //x2=94.42 //y2=0
r1243 (  527 639 ) resistor r=53.7326 //w=0.187 //l=0.785 //layer=li \
 //thickness=0.1 //x=94.42 //y=0.17 //x2=94.42 //y2=0.955
r1244 (  524 603 ) resistor r=5.4201 //w=0.34 //l=0.17 //layer=li \
 //thickness=0.1 //x=93.41 //y=0 //x2=93.24 //y2=0
r1245 (  524 526 ) resistor r=7.17087 //w=0.357 //l=0.2 //layer=li \
 //thickness=0.1 //x=93.41 //y=0 //x2=93.61 //y2=0
r1246 (  523 604 ) resistor r=2.94794 //w=0.34 //l=0.085 //layer=li \
 //thickness=0.1 //x=94.335 //y=0 //x2=94.42 //y2=0
r1247 (  523 526 ) resistor r=25.9944 //w=0.357 //l=0.725 //layer=li \
 //thickness=0.1 //x=94.335 //y=0 //x2=93.61 //y2=0
r1248 (  518 602 ) resistor r=2.94794 //w=0.34 //l=0.085 //layer=li \
 //thickness=0.1 //x=91.175 //y=0 //x2=91.09 //y2=0
r1249 (  518 520 ) resistor r=34.2409 //w=0.357 //l=0.955 //layer=li \
 //thickness=0.1 //x=91.175 //y=0 //x2=92.13 //y2=0
r1250 (  517 603 ) resistor r=5.4201 //w=0.34 //l=0.17 //layer=li \
 //thickness=0.1 //x=93.07 //y=0 //x2=93.24 //y2=0
r1251 (  517 520 ) resistor r=33.7031 //w=0.357 //l=0.94 //layer=li \
 //thickness=0.1 //x=93.07 //y=0 //x2=92.13 //y2=0
r1252 (  513 602 ) resistor r=4.11603 //w=0.68 //l=0.17 //layer=li \
 //thickness=0.1 //x=91.09 //y=0.17 //x2=91.09 //y2=0
r1253 (  513 638 ) resistor r=53.7326 //w=0.187 //l=0.785 //layer=li \
 //thickness=0.1 //x=91.09 //y=0.17 //x2=91.09 //y2=0.955
r1254 (  512 600 ) resistor r=5.4201 //w=0.34 //l=0.17 //layer=li \
 //thickness=0.1 //x=90.08 //y=0 //x2=89.91 //y2=0
r1255 (  511 602 ) resistor r=2.94794 //w=0.34 //l=0.085 //layer=li \
 //thickness=0.1 //x=91.005 //y=0 //x2=91.09 //y2=0
r1256 (  511 512 ) resistor r=33.1653 //w=0.357 //l=0.925 //layer=li \
 //thickness=0.1 //x=91.005 //y=0 //x2=90.08 //y2=0
r1257 (  506 508 ) resistor r=39.7983 //w=0.357 //l=1.11 //layer=li \
 //thickness=0.1 //x=88.43 //y=0 //x2=89.54 //y2=0
r1258 (  504 599 ) resistor r=2.94794 //w=0.34 //l=0.085 //layer=li \
 //thickness=0.1 //x=87.845 //y=0 //x2=87.76 //y2=0
r1259 (  504 506 ) resistor r=20.9748 //w=0.357 //l=0.585 //layer=li \
 //thickness=0.1 //x=87.845 //y=0 //x2=88.43 //y2=0
r1260 (  503 600 ) resistor r=5.4201 //w=0.34 //l=0.17 //layer=li \
 //thickness=0.1 //x=89.74 //y=0 //x2=89.91 //y2=0
r1261 (  503 508 ) resistor r=7.17087 //w=0.357 //l=0.2 //layer=li \
 //thickness=0.1 //x=89.74 //y=0 //x2=89.54 //y2=0
r1262 (  499 599 ) resistor r=4.11603 //w=0.68 //l=0.17 //layer=li \
 //thickness=0.1 //x=87.76 //y=0.17 //x2=87.76 //y2=0
r1263 (  499 637 ) resistor r=53.7326 //w=0.187 //l=0.785 //layer=li \
 //thickness=0.1 //x=87.76 //y=0.17 //x2=87.76 //y2=0.955
r1264 (  496 598 ) resistor r=5.4201 //w=0.34 //l=0.17 //layer=li \
 //thickness=0.1 //x=86.75 //y=0 //x2=86.58 //y2=0
r1265 (  496 498 ) resistor r=20.437 //w=0.357 //l=0.57 //layer=li \
 //thickness=0.1 //x=86.75 //y=0 //x2=87.32 //y2=0
r1266 (  495 599 ) resistor r=2.94794 //w=0.34 //l=0.085 //layer=li \
 //thickness=0.1 //x=87.675 //y=0 //x2=87.76 //y2=0
r1267 (  495 498 ) resistor r=12.7283 //w=0.357 //l=0.355 //layer=li \
 //thickness=0.1 //x=87.675 //y=0 //x2=87.32 //y2=0
r1268 (  490 492 ) resistor r=39.7983 //w=0.357 //l=1.11 //layer=li \
 //thickness=0.1 //x=84.73 //y=0 //x2=85.84 //y2=0
r1269 (  488 490 ) resistor r=39.7983 //w=0.357 //l=1.11 //layer=li \
 //thickness=0.1 //x=83.62 //y=0 //x2=84.73 //y2=0
r1270 (  486 597 ) resistor r=2.94794 //w=0.34 //l=0.085 //layer=li \
 //thickness=0.1 //x=82.93 //y=0 //x2=82.845 //y2=0
r1271 (  486 488 ) resistor r=24.7395 //w=0.357 //l=0.69 //layer=li \
 //thickness=0.1 //x=82.93 //y=0 //x2=83.62 //y2=0
r1272 (  485 598 ) resistor r=5.4201 //w=0.34 //l=0.17 //layer=li \
 //thickness=0.1 //x=86.41 //y=0 //x2=86.58 //y2=0
r1273 (  485 492 ) resistor r=20.437 //w=0.357 //l=0.57 //layer=li \
 //thickness=0.1 //x=86.41 //y=0 //x2=85.84 //y2=0
r1274 (  481 597 ) resistor r=4.11603 //w=0.68 //l=0.17 //layer=li \
 //thickness=0.1 //x=82.845 //y=0.17 //x2=82.845 //y2=0
r1275 (  481 636 ) resistor r=54.4171 //w=0.187 //l=0.795 //layer=li \
 //thickness=0.1 //x=82.845 //y=0.17 //x2=82.845 //y2=0.965
r1276 (  478 596 ) resistor r=5.4201 //w=0.34 //l=0.17 //layer=li \
 //thickness=0.1 //x=81.94 //y=0 //x2=81.77 //y2=0
r1277 (  478 480 ) resistor r=20.437 //w=0.357 //l=0.57 //layer=li \
 //thickness=0.1 //x=81.94 //y=0 //x2=82.51 //y2=0
r1278 (  477 597 ) resistor r=2.94794 //w=0.34 //l=0.085 //layer=li \
 //thickness=0.1 //x=82.76 //y=0 //x2=82.845 //y2=0
r1279 (  477 480 ) resistor r=8.96359 //w=0.357 //l=0.25 //layer=li \
 //thickness=0.1 //x=82.76 //y=0 //x2=82.51 //y2=0
r1280 (  472 474 ) resistor r=39.7983 //w=0.357 //l=1.11 //layer=li \
 //thickness=0.1 //x=79.92 //y=0 //x2=81.03 //y2=0
r1281 (  470 472 ) resistor r=39.7983 //w=0.357 //l=1.11 //layer=li \
 //thickness=0.1 //x=78.81 //y=0 //x2=79.92 //y2=0
r1282 (  468 595 ) resistor r=2.94794 //w=0.34 //l=0.085 //layer=li \
 //thickness=0.1 //x=78.12 //y=0 //x2=78.035 //y2=0
r1283 (  468 470 ) resistor r=24.7395 //w=0.357 //l=0.69 //layer=li \
 //thickness=0.1 //x=78.12 //y=0 //x2=78.81 //y2=0
r1284 (  467 596 ) resistor r=5.4201 //w=0.34 //l=0.17 //layer=li \
 //thickness=0.1 //x=81.6 //y=0 //x2=81.77 //y2=0
r1285 (  467 474 ) resistor r=20.437 //w=0.357 //l=0.57 //layer=li \
 //thickness=0.1 //x=81.6 //y=0 //x2=81.03 //y2=0
r1286 (  463 595 ) resistor r=4.11603 //w=0.68 //l=0.17 //layer=li \
 //thickness=0.1 //x=78.035 //y=0.17 //x2=78.035 //y2=0
r1287 (  463 635 ) resistor r=54.4171 //w=0.187 //l=0.795 //layer=li \
 //thickness=0.1 //x=78.035 //y=0.17 //x2=78.035 //y2=0.965
r1288 (  460 594 ) resistor r=5.4201 //w=0.34 //l=0.17 //layer=li \
 //thickness=0.1 //x=77.13 //y=0 //x2=76.96 //y2=0
r1289 (  460 462 ) resistor r=20.437 //w=0.357 //l=0.57 //layer=li \
 //thickness=0.1 //x=77.13 //y=0 //x2=77.7 //y2=0
r1290 (  459 595 ) resistor r=2.94794 //w=0.34 //l=0.085 //layer=li \
 //thickness=0.1 //x=77.95 //y=0 //x2=78.035 //y2=0
r1291 (  459 462 ) resistor r=8.96359 //w=0.357 //l=0.25 //layer=li \
 //thickness=0.1 //x=77.95 //y=0 //x2=77.7 //y2=0
r1292 (  454 456 ) resistor r=39.7983 //w=0.357 //l=1.11 //layer=li \
 //thickness=0.1 //x=75.11 //y=0 //x2=76.22 //y2=0
r1293 (  452 454 ) resistor r=39.7983 //w=0.357 //l=1.11 //layer=li \
 //thickness=0.1 //x=74 //y=0 //x2=75.11 //y2=0
r1294 (  450 593 ) resistor r=2.94794 //w=0.34 //l=0.085 //layer=li \
 //thickness=0.1 //x=73.31 //y=0 //x2=73.225 //y2=0
r1295 (  450 452 ) resistor r=24.7395 //w=0.357 //l=0.69 //layer=li \
 //thickness=0.1 //x=73.31 //y=0 //x2=74 //y2=0
r1296 (  449 594 ) resistor r=5.4201 //w=0.34 //l=0.17 //layer=li \
 //thickness=0.1 //x=76.79 //y=0 //x2=76.96 //y2=0
r1297 (  449 456 ) resistor r=20.437 //w=0.357 //l=0.57 //layer=li \
 //thickness=0.1 //x=76.79 //y=0 //x2=76.22 //y2=0
r1298 (  445 593 ) resistor r=4.11603 //w=0.68 //l=0.17 //layer=li \
 //thickness=0.1 //x=73.225 //y=0.17 //x2=73.225 //y2=0
r1299 (  445 634 ) resistor r=54.4171 //w=0.187 //l=0.795 //layer=li \
 //thickness=0.1 //x=73.225 //y=0.17 //x2=73.225 //y2=0.965
r1300 (  442 592 ) resistor r=5.4201 //w=0.34 //l=0.17 //layer=li \
 //thickness=0.1 //x=72.32 //y=0 //x2=72.15 //y2=0
r1301 (  442 444 ) resistor r=20.437 //w=0.357 //l=0.57 //layer=li \
 //thickness=0.1 //x=72.32 //y=0 //x2=72.89 //y2=0
r1302 (  441 593 ) resistor r=2.94794 //w=0.34 //l=0.085 //layer=li \
 //thickness=0.1 //x=73.14 //y=0 //x2=73.225 //y2=0
r1303 (  441 444 ) resistor r=8.96359 //w=0.357 //l=0.25 //layer=li \
 //thickness=0.1 //x=73.14 //y=0 //x2=72.89 //y2=0
r1304 (  436 438 ) resistor r=39.7983 //w=0.357 //l=1.11 //layer=li \
 //thickness=0.1 //x=70.3 //y=0 //x2=71.41 //y2=0
r1305 (  434 436 ) resistor r=39.7983 //w=0.357 //l=1.11 //layer=li \
 //thickness=0.1 //x=69.19 //y=0 //x2=70.3 //y2=0
r1306 (  432 591 ) resistor r=2.94794 //w=0.34 //l=0.085 //layer=li \
 //thickness=0.1 //x=68.5 //y=0 //x2=68.415 //y2=0
r1307 (  432 434 ) resistor r=24.7395 //w=0.357 //l=0.69 //layer=li \
 //thickness=0.1 //x=68.5 //y=0 //x2=69.19 //y2=0
r1308 (  431 592 ) resistor r=5.4201 //w=0.34 //l=0.17 //layer=li \
 //thickness=0.1 //x=71.98 //y=0 //x2=72.15 //y2=0
r1309 (  431 438 ) resistor r=20.437 //w=0.357 //l=0.57 //layer=li \
 //thickness=0.1 //x=71.98 //y=0 //x2=71.41 //y2=0
r1310 (  427 591 ) resistor r=4.11603 //w=0.68 //l=0.17 //layer=li \
 //thickness=0.1 //x=68.415 //y=0.17 //x2=68.415 //y2=0
r1311 (  427 633 ) resistor r=54.4171 //w=0.187 //l=0.795 //layer=li \
 //thickness=0.1 //x=68.415 //y=0.17 //x2=68.415 //y2=0.965
r1312 (  424 590 ) resistor r=5.4201 //w=0.34 //l=0.17 //layer=li \
 //thickness=0.1 //x=67.51 //y=0 //x2=67.34 //y2=0
r1313 (  424 426 ) resistor r=20.437 //w=0.357 //l=0.57 //layer=li \
 //thickness=0.1 //x=67.51 //y=0 //x2=68.08 //y2=0
r1314 (  423 591 ) resistor r=2.94794 //w=0.34 //l=0.085 //layer=li \
 //thickness=0.1 //x=68.33 //y=0 //x2=68.415 //y2=0
r1315 (  423 426 ) resistor r=8.96359 //w=0.357 //l=0.25 //layer=li \
 //thickness=0.1 //x=68.33 //y=0 //x2=68.08 //y2=0
r1316 (  418 420 ) resistor r=39.7983 //w=0.357 //l=1.11 //layer=li \
 //thickness=0.1 //x=65.49 //y=0 //x2=66.6 //y2=0
r1317 (  416 418 ) resistor r=39.7983 //w=0.357 //l=1.11 //layer=li \
 //thickness=0.1 //x=64.38 //y=0 //x2=65.49 //y2=0
r1318 (  414 589 ) resistor r=2.94794 //w=0.34 //l=0.085 //layer=li \
 //thickness=0.1 //x=63.69 //y=0 //x2=63.605 //y2=0
r1319 (  414 416 ) resistor r=24.7395 //w=0.357 //l=0.69 //layer=li \
 //thickness=0.1 //x=63.69 //y=0 //x2=64.38 //y2=0
r1320 (  413 590 ) resistor r=5.4201 //w=0.34 //l=0.17 //layer=li \
 //thickness=0.1 //x=67.17 //y=0 //x2=67.34 //y2=0
r1321 (  413 420 ) resistor r=20.437 //w=0.357 //l=0.57 //layer=li \
 //thickness=0.1 //x=67.17 //y=0 //x2=66.6 //y2=0
r1322 (  409 589 ) resistor r=4.11603 //w=0.68 //l=0.17 //layer=li \
 //thickness=0.1 //x=63.605 //y=0.17 //x2=63.605 //y2=0
r1323 (  409 632 ) resistor r=54.4171 //w=0.187 //l=0.795 //layer=li \
 //thickness=0.1 //x=63.605 //y=0.17 //x2=63.605 //y2=0.965
r1324 (  406 588 ) resistor r=5.4201 //w=0.34 //l=0.17 //layer=li \
 //thickness=0.1 //x=62.7 //y=0 //x2=62.53 //y2=0
r1325 (  406 408 ) resistor r=20.437 //w=0.357 //l=0.57 //layer=li \
 //thickness=0.1 //x=62.7 //y=0 //x2=63.27 //y2=0
r1326 (  405 589 ) resistor r=2.94794 //w=0.34 //l=0.085 //layer=li \
 //thickness=0.1 //x=63.52 //y=0 //x2=63.605 //y2=0
r1327 (  405 408 ) resistor r=8.96359 //w=0.357 //l=0.25 //layer=li \
 //thickness=0.1 //x=63.52 //y=0 //x2=63.27 //y2=0
r1328 (  400 402 ) resistor r=39.7983 //w=0.357 //l=1.11 //layer=li \
 //thickness=0.1 //x=60.68 //y=0 //x2=61.79 //y2=0
r1329 (  398 400 ) resistor r=39.7983 //w=0.357 //l=1.11 //layer=li \
 //thickness=0.1 //x=59.57 //y=0 //x2=60.68 //y2=0
r1330 (  396 587 ) resistor r=2.94794 //w=0.34 //l=0.085 //layer=li \
 //thickness=0.1 //x=58.88 //y=0 //x2=58.795 //y2=0
r1331 (  396 398 ) resistor r=24.7395 //w=0.357 //l=0.69 //layer=li \
 //thickness=0.1 //x=58.88 //y=0 //x2=59.57 //y2=0
r1332 (  395 588 ) resistor r=5.4201 //w=0.34 //l=0.17 //layer=li \
 //thickness=0.1 //x=62.36 //y=0 //x2=62.53 //y2=0
r1333 (  395 402 ) resistor r=20.437 //w=0.357 //l=0.57 //layer=li \
 //thickness=0.1 //x=62.36 //y=0 //x2=61.79 //y2=0
r1334 (  391 587 ) resistor r=4.11603 //w=0.68 //l=0.17 //layer=li \
 //thickness=0.1 //x=58.795 //y=0.17 //x2=58.795 //y2=0
r1335 (  391 631 ) resistor r=54.4171 //w=0.187 //l=0.795 //layer=li \
 //thickness=0.1 //x=58.795 //y=0.17 //x2=58.795 //y2=0.965
r1336 (  388 586 ) resistor r=5.4201 //w=0.34 //l=0.17 //layer=li \
 //thickness=0.1 //x=57.89 //y=0 //x2=57.72 //y2=0
r1337 (  388 390 ) resistor r=20.437 //w=0.357 //l=0.57 //layer=li \
 //thickness=0.1 //x=57.89 //y=0 //x2=58.46 //y2=0
r1338 (  387 587 ) resistor r=2.94794 //w=0.34 //l=0.085 //layer=li \
 //thickness=0.1 //x=58.71 //y=0 //x2=58.795 //y2=0
r1339 (  387 390 ) resistor r=8.96359 //w=0.357 //l=0.25 //layer=li \
 //thickness=0.1 //x=58.71 //y=0 //x2=58.46 //y2=0
r1340 (  382 384 ) resistor r=39.7983 //w=0.357 //l=1.11 //layer=li \
 //thickness=0.1 //x=55.87 //y=0 //x2=56.98 //y2=0
r1341 (  380 382 ) resistor r=39.7983 //w=0.357 //l=1.11 //layer=li \
 //thickness=0.1 //x=54.76 //y=0 //x2=55.87 //y2=0
r1342 (  378 585 ) resistor r=2.94794 //w=0.34 //l=0.085 //layer=li \
 //thickness=0.1 //x=54.07 //y=0 //x2=53.985 //y2=0
r1343 (  378 380 ) resistor r=24.7395 //w=0.357 //l=0.69 //layer=li \
 //thickness=0.1 //x=54.07 //y=0 //x2=54.76 //y2=0
r1344 (  377 586 ) resistor r=5.4201 //w=0.34 //l=0.17 //layer=li \
 //thickness=0.1 //x=57.55 //y=0 //x2=57.72 //y2=0
r1345 (  377 384 ) resistor r=20.437 //w=0.357 //l=0.57 //layer=li \
 //thickness=0.1 //x=57.55 //y=0 //x2=56.98 //y2=0
r1346 (  373 585 ) resistor r=4.11603 //w=0.68 //l=0.17 //layer=li \
 //thickness=0.1 //x=53.985 //y=0.17 //x2=53.985 //y2=0
r1347 (  373 630 ) resistor r=54.4171 //w=0.187 //l=0.795 //layer=li \
 //thickness=0.1 //x=53.985 //y=0.17 //x2=53.985 //y2=0.965
r1348 (  370 584 ) resistor r=5.4201 //w=0.34 //l=0.17 //layer=li \
 //thickness=0.1 //x=53.08 //y=0 //x2=52.91 //y2=0
r1349 (  370 372 ) resistor r=20.437 //w=0.357 //l=0.57 //layer=li \
 //thickness=0.1 //x=53.08 //y=0 //x2=53.65 //y2=0
r1350 (  369 585 ) resistor r=2.94794 //w=0.34 //l=0.085 //layer=li \
 //thickness=0.1 //x=53.9 //y=0 //x2=53.985 //y2=0
r1351 (  369 372 ) resistor r=8.96359 //w=0.357 //l=0.25 //layer=li \
 //thickness=0.1 //x=53.9 //y=0 //x2=53.65 //y2=0
r1352 (  364 366 ) resistor r=39.7983 //w=0.357 //l=1.11 //layer=li \
 //thickness=0.1 //x=51.06 //y=0 //x2=52.17 //y2=0
r1353 (  362 364 ) resistor r=39.7983 //w=0.357 //l=1.11 //layer=li \
 //thickness=0.1 //x=49.95 //y=0 //x2=51.06 //y2=0
r1354 (  360 583 ) resistor r=2.94794 //w=0.34 //l=0.085 //layer=li \
 //thickness=0.1 //x=49.26 //y=0 //x2=49.175 //y2=0
r1355 (  360 362 ) resistor r=24.7395 //w=0.357 //l=0.69 //layer=li \
 //thickness=0.1 //x=49.26 //y=0 //x2=49.95 //y2=0
r1356 (  359 584 ) resistor r=5.4201 //w=0.34 //l=0.17 //layer=li \
 //thickness=0.1 //x=52.74 //y=0 //x2=52.91 //y2=0
r1357 (  359 366 ) resistor r=20.437 //w=0.357 //l=0.57 //layer=li \
 //thickness=0.1 //x=52.74 //y=0 //x2=52.17 //y2=0
r1358 (  355 583 ) resistor r=4.11603 //w=0.68 //l=0.17 //layer=li \
 //thickness=0.1 //x=49.175 //y=0.17 //x2=49.175 //y2=0
r1359 (  355 629 ) resistor r=54.4171 //w=0.187 //l=0.795 //layer=li \
 //thickness=0.1 //x=49.175 //y=0.17 //x2=49.175 //y2=0.965
r1360 (  352 582 ) resistor r=5.4201 //w=0.34 //l=0.17 //layer=li \
 //thickness=0.1 //x=48.27 //y=0 //x2=48.1 //y2=0
r1361 (  352 354 ) resistor r=20.437 //w=0.357 //l=0.57 //layer=li \
 //thickness=0.1 //x=48.27 //y=0 //x2=48.84 //y2=0
r1362 (  351 583 ) resistor r=2.94794 //w=0.34 //l=0.085 //layer=li \
 //thickness=0.1 //x=49.09 //y=0 //x2=49.175 //y2=0
r1363 (  351 354 ) resistor r=8.96359 //w=0.357 //l=0.25 //layer=li \
 //thickness=0.1 //x=49.09 //y=0 //x2=48.84 //y2=0
r1364 (  346 348 ) resistor r=39.7983 //w=0.357 //l=1.11 //layer=li \
 //thickness=0.1 //x=46.25 //y=0 //x2=47.36 //y2=0
r1365 (  344 346 ) resistor r=39.7983 //w=0.357 //l=1.11 //layer=li \
 //thickness=0.1 //x=45.14 //y=0 //x2=46.25 //y2=0
r1366 (  342 581 ) resistor r=2.94794 //w=0.34 //l=0.085 //layer=li \
 //thickness=0.1 //x=44.45 //y=0 //x2=44.365 //y2=0
r1367 (  342 344 ) resistor r=24.7395 //w=0.357 //l=0.69 //layer=li \
 //thickness=0.1 //x=44.45 //y=0 //x2=45.14 //y2=0
r1368 (  341 582 ) resistor r=5.4201 //w=0.34 //l=0.17 //layer=li \
 //thickness=0.1 //x=47.93 //y=0 //x2=48.1 //y2=0
r1369 (  341 348 ) resistor r=20.437 //w=0.357 //l=0.57 //layer=li \
 //thickness=0.1 //x=47.93 //y=0 //x2=47.36 //y2=0
r1370 (  337 581 ) resistor r=4.11603 //w=0.68 //l=0.17 //layer=li \
 //thickness=0.1 //x=44.365 //y=0.17 //x2=44.365 //y2=0
r1371 (  337 628 ) resistor r=54.4171 //w=0.187 //l=0.795 //layer=li \
 //thickness=0.1 //x=44.365 //y=0.17 //x2=44.365 //y2=0.965
r1372 (  334 580 ) resistor r=5.4201 //w=0.34 //l=0.17 //layer=li \
 //thickness=0.1 //x=43.46 //y=0 //x2=43.29 //y2=0
r1373 (  334 336 ) resistor r=20.437 //w=0.357 //l=0.57 //layer=li \
 //thickness=0.1 //x=43.46 //y=0 //x2=44.03 //y2=0
r1374 (  333 581 ) resistor r=2.94794 //w=0.34 //l=0.085 //layer=li \
 //thickness=0.1 //x=44.28 //y=0 //x2=44.365 //y2=0
r1375 (  333 336 ) resistor r=8.96359 //w=0.357 //l=0.25 //layer=li \
 //thickness=0.1 //x=44.28 //y=0 //x2=44.03 //y2=0
r1376 (  328 330 ) resistor r=39.7983 //w=0.357 //l=1.11 //layer=li \
 //thickness=0.1 //x=41.44 //y=0 //x2=42.55 //y2=0
r1377 (  326 328 ) resistor r=39.7983 //w=0.357 //l=1.11 //layer=li \
 //thickness=0.1 //x=40.33 //y=0 //x2=41.44 //y2=0
r1378 (  324 579 ) resistor r=2.94794 //w=0.34 //l=0.085 //layer=li \
 //thickness=0.1 //x=39.64 //y=0 //x2=39.555 //y2=0
r1379 (  324 326 ) resistor r=24.7395 //w=0.357 //l=0.69 //layer=li \
 //thickness=0.1 //x=39.64 //y=0 //x2=40.33 //y2=0
r1380 (  323 580 ) resistor r=5.4201 //w=0.34 //l=0.17 //layer=li \
 //thickness=0.1 //x=43.12 //y=0 //x2=43.29 //y2=0
r1381 (  323 330 ) resistor r=20.437 //w=0.357 //l=0.57 //layer=li \
 //thickness=0.1 //x=43.12 //y=0 //x2=42.55 //y2=0
r1382 (  319 579 ) resistor r=4.11603 //w=0.68 //l=0.17 //layer=li \
 //thickness=0.1 //x=39.555 //y=0.17 //x2=39.555 //y2=0
r1383 (  319 627 ) resistor r=54.4171 //w=0.187 //l=0.795 //layer=li \
 //thickness=0.1 //x=39.555 //y=0.17 //x2=39.555 //y2=0.965
r1384 (  316 578 ) resistor r=5.4201 //w=0.34 //l=0.17 //layer=li \
 //thickness=0.1 //x=38.65 //y=0 //x2=38.48 //y2=0
r1385 (  316 318 ) resistor r=20.437 //w=0.357 //l=0.57 //layer=li \
 //thickness=0.1 //x=38.65 //y=0 //x2=39.22 //y2=0
r1386 (  315 579 ) resistor r=2.94794 //w=0.34 //l=0.085 //layer=li \
 //thickness=0.1 //x=39.47 //y=0 //x2=39.555 //y2=0
r1387 (  315 318 ) resistor r=8.96359 //w=0.357 //l=0.25 //layer=li \
 //thickness=0.1 //x=39.47 //y=0 //x2=39.22 //y2=0
r1388 (  310 312 ) resistor r=39.7983 //w=0.357 //l=1.11 //layer=li \
 //thickness=0.1 //x=36.63 //y=0 //x2=37.74 //y2=0
r1389 (  308 310 ) resistor r=39.7983 //w=0.357 //l=1.11 //layer=li \
 //thickness=0.1 //x=35.52 //y=0 //x2=36.63 //y2=0
r1390 (  306 577 ) resistor r=2.94794 //w=0.34 //l=0.085 //layer=li \
 //thickness=0.1 //x=34.83 //y=0 //x2=34.745 //y2=0
r1391 (  306 308 ) resistor r=24.7395 //w=0.357 //l=0.69 //layer=li \
 //thickness=0.1 //x=34.83 //y=0 //x2=35.52 //y2=0
r1392 (  305 578 ) resistor r=5.4201 //w=0.34 //l=0.17 //layer=li \
 //thickness=0.1 //x=38.31 //y=0 //x2=38.48 //y2=0
r1393 (  305 312 ) resistor r=20.437 //w=0.357 //l=0.57 //layer=li \
 //thickness=0.1 //x=38.31 //y=0 //x2=37.74 //y2=0
r1394 (  301 577 ) resistor r=4.11603 //w=0.68 //l=0.17 //layer=li \
 //thickness=0.1 //x=34.745 //y=0.17 //x2=34.745 //y2=0
r1395 (  301 626 ) resistor r=54.4171 //w=0.187 //l=0.795 //layer=li \
 //thickness=0.1 //x=34.745 //y=0.17 //x2=34.745 //y2=0.965
r1396 (  298 576 ) resistor r=5.4201 //w=0.34 //l=0.17 //layer=li \
 //thickness=0.1 //x=33.84 //y=0 //x2=33.67 //y2=0
r1397 (  298 300 ) resistor r=20.437 //w=0.357 //l=0.57 //layer=li \
 //thickness=0.1 //x=33.84 //y=0 //x2=34.41 //y2=0
r1398 (  297 577 ) resistor r=2.94794 //w=0.34 //l=0.085 //layer=li \