// File: TMRDFFQX1.spi.TMRDFFQX1.pxi
// Created: Tue Oct 15 15:51:48 2024
// 
simulator lang=spectre
x_PM_TMRDFFQX1\%GND ( GND N_GND_c_24_p N_GND_c_114_p N_GND_c_1_p N_GND_c_25_p \
 N_GND_c_26_p N_GND_c_75_p N_GND_c_34_p N_GND_c_41_p N_GND_c_51_p N_GND_c_58_p \
 N_GND_c_78_p N_GND_c_85_p N_GND_c_92_p N_GND_c_99_p N_GND_c_207_p \
 N_GND_c_214_p N_GND_c_163_p N_GND_c_170_p N_GND_c_131_p N_GND_c_138_p \
 N_GND_c_147_p N_GND_c_154_p N_GND_c_173_p N_GND_c_180_p N_GND_c_187_p \
 N_GND_c_194_p N_GND_c_351_p N_GND_c_358_p N_GND_c_307_p N_GND_c_314_p \
 N_GND_c_266_p N_GND_c_273_p N_GND_c_282_p N_GND_c_289_p N_GND_c_317_p \
 N_GND_c_324_p N_GND_c_331_p N_GND_c_338_p N_GND_c_373_p N_GND_c_380_p \
 N_GND_c_383_p N_GND_c_389_p N_GND_c_470_p N_GND_c_476_p N_GND_c_955_p \
 N_GND_c_507_p N_GND_c_515_p N_GND_c_2_p N_GND_c_3_p N_GND_c_4_p N_GND_c_5_p \
 N_GND_c_6_p N_GND_c_7_p N_GND_c_8_p N_GND_c_9_p N_GND_c_10_p N_GND_c_11_p \
 N_GND_c_12_p N_GND_c_13_p N_GND_c_14_p N_GND_c_15_p N_GND_c_16_p N_GND_c_17_p \
 N_GND_c_18_p N_GND_c_19_p N_GND_c_20_p N_GND_c_21_p N_GND_c_22_p N_GND_c_23_p \
 N_GND_M0_noxref_d N_GND_M3_noxref_d N_GND_M5_noxref_d N_GND_M7_noxref_d \
 N_GND_M9_noxref_d N_GND_M11_noxref_d N_GND_M13_noxref_d N_GND_M16_noxref_d \
 N_GND_M18_noxref_d N_GND_M20_noxref_d N_GND_M22_noxref_d N_GND_M24_noxref_d \
 N_GND_M26_noxref_d N_GND_M29_noxref_d N_GND_M31_noxref_d N_GND_M33_noxref_d \
 N_GND_M35_noxref_d N_GND_M37_noxref_d N_GND_M39_noxref_d N_GND_M41_noxref_d \
 N_GND_M43_noxref_d N_GND_M45_noxref_s )  PM_TMRDFFQX1\%GND
x_PM_TMRDFFQX1\%VDD ( VDD N_VDD_c_996_p N_VDD_c_972_n N_VDD_c_1063_p \
 N_VDD_c_1064_p N_VDD_c_1011_p N_VDD_c_1074_p N_VDD_c_1483_p N_VDD_c_997_p \
 N_VDD_c_998_p N_VDD_c_1485_p N_VDD_c_1486_p N_VDD_c_1009_p N_VDD_c_1033_p \
 N_VDD_c_1488_p N_VDD_c_1489_p N_VDD_c_1044_p N_VDD_c_1157_p N_VDD_c_1501_p \
 N_VDD_c_1502_p N_VDD_c_1081_p N_VDD_c_1110_p N_VDD_c_1527_p N_VDD_c_1528_p \
 N_VDD_c_1121_p N_VDD_c_1178_p N_VDD_c_1530_p N_VDD_c_1531_p N_VDD_c_1264_p \
 N_VDD_c_1265_p N_VDD_c_1212_p N_VDD_c_1275_p N_VDD_c_1510_p N_VDD_c_1198_p \
 N_VDD_c_1199_p N_VDD_c_1512_p N_VDD_c_1513_p N_VDD_c_1210_p N_VDD_c_1234_p \
 N_VDD_c_1515_p N_VDD_c_1516_p N_VDD_c_1245_p N_VDD_c_1354_p N_VDD_c_1540_p \
 N_VDD_c_1541_p N_VDD_c_1282_p N_VDD_c_1311_p N_VDD_c_1543_p N_VDD_c_1544_p \
 N_VDD_c_1322_p N_VDD_c_1375_p N_VDD_c_1546_p N_VDD_c_1547_p N_VDD_c_1548_p \
 N_VDD_c_1608_p N_VDD_c_1430_p N_VDD_c_1560_p N_VDD_c_1561_p N_VDD_c_1416_p \
 N_VDD_c_1409_p N_VDD_c_1563_p N_VDD_c_1564_p N_VDD_c_1428_p N_VDD_c_1452_p \
 N_VDD_c_1566_p N_VDD_c_1567_p N_VDD_c_1463_p N_VDD_c_1612_p N_VDD_c_1709_p \
 N_VDD_c_1710_p N_VDD_c_1636_p N_VDD_c_1674_p N_VDD_c_1664_p N_VDD_c_1665_p \
 N_VDD_c_1666_p N_VDD_c_1746_p N_VDD_c_1775_p N_VDD_c_1770_p N_VDD_c_1853_p \
 N_VDD_c_1875_p N_VDD_c_1808_p N_VDD_c_1826_p N_VDD_c_1968_p N_VDD_c_1969_p \
 N_VDD_c_973_n N_VDD_c_974_n N_VDD_c_975_n N_VDD_c_976_n N_VDD_c_977_n \
 N_VDD_c_978_n N_VDD_c_979_n N_VDD_c_980_n N_VDD_c_981_n N_VDD_c_982_n \
 N_VDD_c_983_n N_VDD_c_984_n N_VDD_c_985_n N_VDD_c_986_n N_VDD_c_987_n \
 N_VDD_c_988_n N_VDD_c_989_n N_VDD_c_990_n N_VDD_c_991_n N_VDD_c_992_n \
 N_VDD_c_993_n N_VDD_c_994_n N_VDD_M46_noxref_s N_VDD_M47_noxref_d \
 N_VDD_M49_noxref_d N_VDD_M51_noxref_d N_VDD_M52_noxref_s N_VDD_M53_noxref_d \
 N_VDD_M55_noxref_d N_VDD_M56_noxref_s N_VDD_M57_noxref_d N_VDD_M59_noxref_d \
 N_VDD_M60_noxref_s N_VDD_M61_noxref_d N_VDD_M63_noxref_d N_VDD_M64_noxref_s \
 N_VDD_M65_noxref_d N_VDD_M67_noxref_d N_VDD_M68_noxref_s N_VDD_M69_noxref_d \
 N_VDD_M71_noxref_d N_VDD_M72_noxref_s N_VDD_M73_noxref_d N_VDD_M75_noxref_d \
 N_VDD_M77_noxref_d N_VDD_M78_noxref_s N_VDD_M79_noxref_d N_VDD_M81_noxref_d \
 N_VDD_M82_noxref_s N_VDD_M83_noxref_d N_VDD_M85_noxref_d N_VDD_M86_noxref_s \
 N_VDD_M87_noxref_d N_VDD_M89_noxref_d N_VDD_M90_noxref_s N_VDD_M91_noxref_d \
 N_VDD_M93_noxref_d N_VDD_M94_noxref_s N_VDD_M95_noxref_d N_VDD_M97_noxref_d \
 N_VDD_M98_noxref_s N_VDD_M99_noxref_d N_VDD_M101_noxref_d N_VDD_M103_noxref_d \
 N_VDD_M104_noxref_s N_VDD_M105_noxref_d N_VDD_M107_noxref_d \
 N_VDD_M108_noxref_s N_VDD_M109_noxref_d N_VDD_M111_noxref_d \
 N_VDD_M112_noxref_s N_VDD_M113_noxref_d N_VDD_M115_noxref_d \
 N_VDD_M116_noxref_s N_VDD_M117_noxref_d N_VDD_M119_noxref_d \
 N_VDD_M120_noxref_s N_VDD_M121_noxref_d N_VDD_M123_noxref_d \
 N_VDD_M124_noxref_s N_VDD_M125_noxref_d N_VDD_M127_noxref_d \
 N_VDD_M136_noxref_s N_VDD_M137_noxref_d )  PM_TMRDFFQX1\%VDD
x_PM_TMRDFFQX1\%noxref_3 ( N_noxref_3_c_2007_n N_noxref_3_c_2011_n \
 N_noxref_3_c_2012_n N_noxref_3_c_2079_p N_noxref_3_c_2013_n \
 N_noxref_3_c_2031_n N_noxref_3_c_2035_n N_noxref_3_c_2037_n \
 N_noxref_3_c_2014_n N_noxref_3_c_2151_p N_noxref_3_c_2015_n \
 N_noxref_3_c_2016_n N_noxref_3_c_2171_p N_noxref_3_M2_noxref_g \
 N_noxref_3_M5_noxref_g N_noxref_3_M50_noxref_g N_noxref_3_M51_noxref_g \
 N_noxref_3_M56_noxref_g N_noxref_3_M57_noxref_g N_noxref_3_c_2106_p \
 N_noxref_3_c_2107_p N_noxref_3_c_2108_p N_noxref_3_c_2109_p \
 N_noxref_3_c_2086_p N_noxref_3_c_2111_p N_noxref_3_c_2087_p \
 N_noxref_3_c_2017_n N_noxref_3_c_2019_n N_noxref_3_c_2020_n \
 N_noxref_3_c_2021_n N_noxref_3_c_2022_n N_noxref_3_c_2023_n \
 N_noxref_3_c_2024_n N_noxref_3_c_2026_n N_noxref_3_c_2093_p \
 N_noxref_3_c_2094_p N_noxref_3_c_2085_p N_noxref_3_c_2054_n \
 N_noxref_3_M4_noxref_d N_noxref_3_M52_noxref_d N_noxref_3_M54_noxref_d )  \
 PM_TMRDFFQX1\%noxref_3
x_PM_TMRDFFQX1\%noxref_4 ( N_noxref_4_c_2239_n N_noxref_4_c_2287_n \
 N_noxref_4_c_2256_n N_noxref_4_c_2260_n N_noxref_4_c_2262_n \
 N_noxref_4_c_2240_n N_noxref_4_c_2338_p N_noxref_4_c_2241_n \
 N_noxref_4_c_2242_n N_noxref_4_c_2323_p N_noxref_4_M7_noxref_g \
 N_noxref_4_M60_noxref_g N_noxref_4_M61_noxref_g N_noxref_4_c_2243_n \
 N_noxref_4_c_2245_n N_noxref_4_c_2246_n N_noxref_4_c_2247_n \
 N_noxref_4_c_2248_n N_noxref_4_c_2249_n N_noxref_4_c_2250_n \
 N_noxref_4_c_2252_n N_noxref_4_c_2275_n N_noxref_4_M6_noxref_d \
 N_noxref_4_M56_noxref_d N_noxref_4_M58_noxref_d )  PM_TMRDFFQX1\%noxref_4
x_PM_TMRDFFQX1\%noxref_5 ( N_noxref_5_c_2460_n N_noxref_5_c_2461_n \
 N_noxref_5_c_2389_n N_noxref_5_c_2468_n N_noxref_5_c_2414_n \
 N_noxref_5_c_2418_n N_noxref_5_c_2420_n N_noxref_5_c_2424_n \
 N_noxref_5_c_2390_n N_noxref_5_c_2474_n N_noxref_5_c_2428_n \
 N_noxref_5_c_2391_n N_noxref_5_c_2392_n N_noxref_5_c_2569_p \
 N_noxref_5_c_2486_n N_noxref_5_M3_noxref_g N_noxref_5_M9_noxref_g \
 N_noxref_5_M52_noxref_g N_noxref_5_M53_noxref_g N_noxref_5_M64_noxref_g \
 N_noxref_5_M65_noxref_g N_noxref_5_c_2393_n N_noxref_5_c_2395_n \
 N_noxref_5_c_2396_n N_noxref_5_c_2397_n N_noxref_5_c_2398_n \
 N_noxref_5_c_2399_n N_noxref_5_c_2400_n N_noxref_5_c_2402_n \
 N_noxref_5_c_2403_n N_noxref_5_c_2405_n N_noxref_5_c_2406_n \
 N_noxref_5_c_2407_n N_noxref_5_c_2408_n N_noxref_5_c_2409_n \
 N_noxref_5_c_2410_n N_noxref_5_c_2412_n N_noxref_5_c_2443_n \
 N_noxref_5_c_2444_n N_noxref_5_M2_noxref_d N_noxref_5_M46_noxref_d \
 N_noxref_5_M48_noxref_d N_noxref_5_M50_noxref_d )  PM_TMRDFFQX1\%noxref_5
x_PM_TMRDFFQX1\%noxref_6 ( N_noxref_6_c_2691_p N_noxref_6_c_2684_n \
 N_noxref_6_c_2653_n N_noxref_6_c_2657_n N_noxref_6_c_2659_n \
 N_noxref_6_c_2637_n N_noxref_6_c_2721_p N_noxref_6_c_2638_n \
 N_noxref_6_c_2639_n N_noxref_6_c_2757_p N_noxref_6_M11_noxref_g \
 N_noxref_6_M68_noxref_g N_noxref_6_M69_noxref_g N_noxref_6_c_2640_n \
 N_noxref_6_c_2642_n N_noxref_6_c_2643_n N_noxref_6_c_2644_n \
 N_noxref_6_c_2645_n N_noxref_6_c_2646_n N_noxref_6_c_2647_n \
 N_noxref_6_c_2649_n N_noxref_6_c_2672_n N_noxref_6_M10_noxref_d \
 N_noxref_6_M64_noxref_d N_noxref_6_M66_noxref_d )  PM_TMRDFFQX1\%noxref_6
x_PM_TMRDFFQX1\%noxref_7 ( N_noxref_7_c_2787_n N_noxref_7_c_2788_n \
 N_noxref_7_c_2816_n N_noxref_7_c_2873_n N_noxref_7_c_2817_n \
 N_noxref_7_c_2819_n N_noxref_7_c_2789_n N_noxref_7_c_2875_n \
 N_noxref_7_c_2790_n N_noxref_7_c_2825_n N_noxref_7_c_2829_n \
 N_noxref_7_c_2831_n N_noxref_7_c_2792_n N_noxref_7_c_2991_p \
 N_noxref_7_c_2793_n N_noxref_7_c_2960_n N_noxref_7_c_2794_n \
 N_noxref_7_c_3053_p N_noxref_7_M0_noxref_g N_noxref_7_M6_noxref_g \
 N_noxref_7_M12_noxref_g N_noxref_7_M46_noxref_g N_noxref_7_M47_noxref_g \
 N_noxref_7_M58_noxref_g N_noxref_7_M59_noxref_g N_noxref_7_M70_noxref_g \
 N_noxref_7_M71_noxref_g N_noxref_7_c_2796_n N_noxref_7_c_2798_n \
 N_noxref_7_c_2799_n N_noxref_7_c_2800_n N_noxref_7_c_2801_n \
 N_noxref_7_c_2802_n N_noxref_7_c_2803_n N_noxref_7_c_2805_n \
 N_noxref_7_c_2954_n N_noxref_7_c_2853_n N_noxref_7_c_2884_n \
 N_noxref_7_c_2887_n N_noxref_7_c_2889_n N_noxref_7_c_2921_n \
 N_noxref_7_c_2923_n N_noxref_7_c_2924_n N_noxref_7_c_2892_n \
 N_noxref_7_c_2893_n N_noxref_7_c_2969_n N_noxref_7_c_2972_n \
 N_noxref_7_c_2974_n N_noxref_7_c_3018_p N_noxref_7_c_3092_p \
 N_noxref_7_c_3079_p N_noxref_7_c_2977_n N_noxref_7_c_2978_n \
 N_noxref_7_c_2894_n N_noxref_7_c_2930_n N_noxref_7_c_2896_n \
 N_noxref_7_c_2979_n N_noxref_7_c_3086_p N_noxref_7_c_2981_n \
 N_noxref_7_M8_noxref_d N_noxref_7_M60_noxref_d N_noxref_7_M62_noxref_d )  \
 PM_TMRDFFQX1\%noxref_7
x_PM_TMRDFFQX1\%noxref_8 ( N_noxref_8_c_3201_p N_noxref_8_c_3216_p \
 N_noxref_8_c_3193_p N_noxref_8_c_3206_p N_noxref_8_c_3140_n \
 N_noxref_8_c_3158_n N_noxref_8_c_3162_n N_noxref_8_c_3164_n \
 N_noxref_8_c_3141_n N_noxref_8_c_3281_p N_noxref_8_c_3142_n \
 N_noxref_8_c_3143_n N_noxref_8_c_3301_p N_noxref_8_M15_noxref_g \
 N_noxref_8_M18_noxref_g N_noxref_8_M76_noxref_g N_noxref_8_M77_noxref_g \
 N_noxref_8_M82_noxref_g N_noxref_8_M83_noxref_g N_noxref_8_c_3232_p \
 N_noxref_8_c_3233_p N_noxref_8_c_3234_p N_noxref_8_c_3235_p \
 N_noxref_8_c_3213_p N_noxref_8_c_3237_p N_noxref_8_c_3214_p \
 N_noxref_8_c_3144_n N_noxref_8_c_3146_n N_noxref_8_c_3147_n \
 N_noxref_8_c_3148_n N_noxref_8_c_3149_n N_noxref_8_c_3150_n \
 N_noxref_8_c_3151_n N_noxref_8_c_3153_n N_noxref_8_c_3219_p \
 N_noxref_8_c_3220_p N_noxref_8_c_3212_p N_noxref_8_c_3181_n \
 N_noxref_8_M17_noxref_d N_noxref_8_M78_noxref_d N_noxref_8_M80_noxref_d )  \
 PM_TMRDFFQX1\%noxref_8
x_PM_TMRDFFQX1\%noxref_9 ( N_noxref_9_c_3427_p N_noxref_9_c_3419_n \
 N_noxref_9_c_3388_n N_noxref_9_c_3392_n N_noxref_9_c_3394_n \
 N_noxref_9_c_3372_n N_noxref_9_c_3470_p N_noxref_9_c_3373_n \
 N_noxref_9_c_3374_n N_noxref_9_c_3455_p N_noxref_9_M20_noxref_g \
 N_noxref_9_M86_noxref_g N_noxref_9_M87_noxref_g N_noxref_9_c_3375_n \
 N_noxref_9_c_3377_n N_noxref_9_c_3378_n N_noxref_9_c_3379_n \
 N_noxref_9_c_3380_n N_noxref_9_c_3381_n N_noxref_9_c_3382_n \
 N_noxref_9_c_3384_n N_noxref_9_c_3407_n N_noxref_9_M19_noxref_d \
 N_noxref_9_M82_noxref_d N_noxref_9_M84_noxref_d )  PM_TMRDFFQX1\%noxref_9
x_PM_TMRDFFQX1\%noxref_10 ( N_noxref_10_c_3595_n N_noxref_10_c_3596_n \
 N_noxref_10_c_3598_n N_noxref_10_c_3603_n N_noxref_10_c_3549_n \
 N_noxref_10_c_3553_n N_noxref_10_c_3555_n N_noxref_10_c_3559_n \
 N_noxref_10_c_3525_n N_noxref_10_c_3666_p N_noxref_10_c_3563_n \
 N_noxref_10_c_3526_n N_noxref_10_c_3527_n N_noxref_10_c_3705_p \
 N_noxref_10_c_3620_n N_noxref_10_M16_noxref_g N_noxref_10_M22_noxref_g \
 N_noxref_10_M78_noxref_g N_noxref_10_M79_noxref_g N_noxref_10_M90_noxref_g \
 N_noxref_10_M91_noxref_g N_noxref_10_c_3528_n N_noxref_10_c_3530_n \
 N_noxref_10_c_3531_n N_noxref_10_c_3532_n N_noxref_10_c_3533_n \
 N_noxref_10_c_3534_n N_noxref_10_c_3535_n N_noxref_10_c_3537_n \
 N_noxref_10_c_3538_n N_noxref_10_c_3540_n N_noxref_10_c_3541_n \
 N_noxref_10_c_3542_n N_noxref_10_c_3543_n N_noxref_10_c_3544_n \
 N_noxref_10_c_3545_n N_noxref_10_c_3547_n N_noxref_10_c_3578_n \
 N_noxref_10_c_3579_n N_noxref_10_M15_noxref_d N_noxref_10_M72_noxref_d \
 N_noxref_10_M74_noxref_d N_noxref_10_M76_noxref_d )  PM_TMRDFFQX1\%noxref_10
x_PM_TMRDFFQX1\%noxref_11 ( N_noxref_11_c_3837_p N_noxref_11_c_3830_n \
 N_noxref_11_c_3799_n N_noxref_11_c_3803_n N_noxref_11_c_3805_n \
 N_noxref_11_c_3783_n N_noxref_11_c_3876_p N_noxref_11_c_3784_n \
 N_noxref_11_c_3785_n N_noxref_11_c_3900_p N_noxref_11_M24_noxref_g \
 N_noxref_11_M94_noxref_g N_noxref_11_M95_noxref_g N_noxref_11_c_3786_n \
 N_noxref_11_c_3788_n N_noxref_11_c_3789_n N_noxref_11_c_3790_n \
 N_noxref_11_c_3791_n N_noxref_11_c_3792_n N_noxref_11_c_3793_n \
 N_noxref_11_c_3795_n N_noxref_11_c_3818_n N_noxref_11_M23_noxref_d \
 N_noxref_11_M90_noxref_d N_noxref_11_M92_noxref_d )  PM_TMRDFFQX1\%noxref_11
x_PM_TMRDFFQX1\%noxref_12 ( N_noxref_12_c_3954_n N_noxref_12_c_3956_n \
 N_noxref_12_c_3957_n N_noxref_12_c_4016_n N_noxref_12_c_3958_n \
 N_noxref_12_c_3960_n N_noxref_12_c_3934_n N_noxref_12_c_4018_n \
 N_noxref_12_c_3935_n N_noxref_12_c_3966_n N_noxref_12_c_3970_n \
 N_noxref_12_c_3972_n N_noxref_12_c_3937_n N_noxref_12_c_4131_p \
 N_noxref_12_c_3938_n N_noxref_12_c_4102_n N_noxref_12_c_3939_n \
 N_noxref_12_c_4193_p N_noxref_12_M13_noxref_g N_noxref_12_M19_noxref_g \
 N_noxref_12_M25_noxref_g N_noxref_12_M72_noxref_g N_noxref_12_M73_noxref_g \
 N_noxref_12_M84_noxref_g N_noxref_12_M85_noxref_g N_noxref_12_M96_noxref_g \
 N_noxref_12_M97_noxref_g N_noxref_12_c_3941_n N_noxref_12_c_3943_n \
 N_noxref_12_c_3944_n N_noxref_12_c_3945_n N_noxref_12_c_3946_n \
 N_noxref_12_c_3947_n N_noxref_12_c_3948_n N_noxref_12_c_3950_n \
 N_noxref_12_c_4096_n N_noxref_12_c_3994_n N_noxref_12_c_4027_n \
 N_noxref_12_c_4030_n N_noxref_12_c_4032_n N_noxref_12_c_4064_n \
 N_noxref_12_c_4066_n N_noxref_12_c_4067_n N_noxref_12_c_4035_n \
 N_noxref_12_c_4036_n N_noxref_12_c_4111_n N_noxref_12_c_4114_n \
 N_noxref_12_c_4116_n N_noxref_12_c_4155_p N_noxref_12_c_4234_p \
 N_noxref_12_c_4211_p N_noxref_12_c_4119_n N_noxref_12_c_4120_n \
 N_noxref_12_c_4037_n N_noxref_12_c_4073_n N_noxref_12_c_4039_n \
 N_noxref_12_c_4121_n N_noxref_12_c_4228_p N_noxref_12_c_4123_n \
 N_noxref_12_M21_noxref_d N_noxref_12_M86_noxref_d N_noxref_12_M88_noxref_d )  \
 PM_TMRDFFQX1\%noxref_12
x_PM_TMRDFFQX1\%D ( N_D_c_4289_n N_D_c_4308_n N_D_c_4310_n N_D_c_4323_n D D D \
 D N_D_c_4361_n N_D_c_4325_n N_D_c_4453_n N_D_c_4327_n N_D_c_4537_p \
 N_D_c_4329_n N_D_M4_noxref_g N_D_M17_noxref_g N_D_M30_noxref_g \
 N_D_M54_noxref_g N_D_M55_noxref_g N_D_M80_noxref_g N_D_M81_noxref_g \
 N_D_M106_noxref_g N_D_M107_noxref_g N_D_c_4371_n N_D_c_4372_n N_D_c_4373_n \
 N_D_c_4374_n N_D_c_4376_n N_D_c_4377_n N_D_c_4379_n N_D_c_4380_n N_D_c_4463_n \
 N_D_c_4464_n N_D_c_4465_n N_D_c_4466_n N_D_c_4468_n N_D_c_4469_n N_D_c_4471_n \
 N_D_c_4472_n N_D_c_4552_p N_D_c_4553_p N_D_c_4554_p N_D_c_4546_p N_D_c_4555_p \
 N_D_c_4541_p N_D_c_4557_p N_D_c_4542_p N_D_c_4382_n N_D_c_4383_n N_D_c_4385_n \
 N_D_c_4474_n N_D_c_4475_n N_D_c_4477_n N_D_c_4547_p N_D_c_4548_p N_D_c_4539_p \
 )  PM_TMRDFFQX1\%D
x_PM_TMRDFFQX1\%noxref_14 ( N_noxref_14_c_4766_n N_noxref_14_c_4768_n \
 N_noxref_14_c_4796_p N_noxref_14_c_4769_n N_noxref_14_c_4713_n \
 N_noxref_14_c_4731_n N_noxref_14_c_4735_n N_noxref_14_c_4737_n \
 N_noxref_14_c_4714_n N_noxref_14_c_4907_p N_noxref_14_c_4715_n \
 N_noxref_14_c_4716_n N_noxref_14_c_4785_n N_noxref_14_M28_noxref_g \
 N_noxref_14_M31_noxref_g N_noxref_14_M102_noxref_g N_noxref_14_M103_noxref_g \
 N_noxref_14_M108_noxref_g N_noxref_14_M109_noxref_g N_noxref_14_c_4821_p \
 N_noxref_14_c_4822_p N_noxref_14_c_4823_p N_noxref_14_c_4864_p \
 N_noxref_14_c_4842_p N_noxref_14_c_4866_p N_noxref_14_c_4843_p \
 N_noxref_14_c_4717_n N_noxref_14_c_4719_n N_noxref_14_c_4720_n \
 N_noxref_14_c_4721_n N_noxref_14_c_4722_n N_noxref_14_c_4723_n \
 N_noxref_14_c_4724_n N_noxref_14_c_4726_n N_noxref_14_c_4816_p \
 N_noxref_14_c_4826_p N_noxref_14_c_4811_p N_noxref_14_c_4754_n \
 N_noxref_14_M30_noxref_d N_noxref_14_M104_noxref_d N_noxref_14_M106_noxref_d ) \
 PM_TMRDFFQX1\%noxref_14
x_PM_TMRDFFQX1\%noxref_15 ( N_noxref_15_c_5008_p N_noxref_15_c_4993_n \
 N_noxref_15_c_4962_n N_noxref_15_c_4966_n N_noxref_15_c_4968_n \
 N_noxref_15_c_4946_n N_noxref_15_c_5072_p N_noxref_15_c_4947_n \
 N_noxref_15_c_4948_n N_noxref_15_c_5057_p N_noxref_15_M33_noxref_g \
 N_noxref_15_M112_noxref_g N_noxref_15_M113_noxref_g N_noxref_15_c_4949_n \
 N_noxref_15_c_4951_n N_noxref_15_c_4952_n N_noxref_15_c_4953_n \
 N_noxref_15_c_4954_n N_noxref_15_c_4955_n N_noxref_15_c_4956_n \
 N_noxref_15_c_4958_n N_noxref_15_c_4981_n N_noxref_15_M32_noxref_d \
 N_noxref_15_M108_noxref_d N_noxref_15_M110_noxref_d )  PM_TMRDFFQX1\%noxref_15
x_PM_TMRDFFQX1\%CLK ( N_CLK_c_5106_n N_CLK_c_5124_n N_CLK_c_5125_n \
 N_CLK_c_5132_n N_CLK_c_5133_n N_CLK_c_5151_n N_CLK_c_5164_n N_CLK_c_5183_n \
 N_CLK_c_5184_n N_CLK_c_5202_n CLK CLK CLK CLK CLK CLK CLK CLK CLK CLK CLK CLK \
 CLK CLK CLK CLK CLK CLK N_CLK_c_5097_n N_CLK_c_5275_n N_CLK_c_5098_n \
 N_CLK_c_5100_n N_CLK_c_5435_n N_CLK_c_5101_n N_CLK_c_5103_n N_CLK_c_5615_n \
 N_CLK_c_5104_n N_CLK_M1_noxref_g N_CLK_M8_noxref_g N_CLK_M14_noxref_g \
 N_CLK_M21_noxref_g N_CLK_M27_noxref_g N_CLK_M34_noxref_g N_CLK_M48_noxref_g \
 N_CLK_M49_noxref_g N_CLK_M62_noxref_g N_CLK_M63_noxref_g N_CLK_M74_noxref_g \
 N_CLK_M75_noxref_g N_CLK_M88_noxref_g N_CLK_M89_noxref_g N_CLK_M100_noxref_g \
 N_CLK_M101_noxref_g N_CLK_M114_noxref_g N_CLK_M115_noxref_g N_CLK_c_5372_n \
 N_CLK_c_5375_n N_CLK_c_5770_p N_CLK_c_5777_p N_CLK_c_5259_n N_CLK_c_5260_n \
 N_CLK_c_5261_n N_CLK_c_5262_n N_CLK_c_5265_n N_CLK_c_5284_n N_CLK_c_5287_n \
 N_CLK_c_5289_n N_CLK_c_5385_n N_CLK_c_5387_n N_CLK_c_5388_n N_CLK_c_5292_n \
 N_CLK_c_5293_n N_CLK_c_5533_n N_CLK_c_5536_n N_CLK_c_5799_p N_CLK_c_5806_p \
 N_CLK_c_5419_n N_CLK_c_5420_n N_CLK_c_5421_n N_CLK_c_5422_n N_CLK_c_5425_n \
 N_CLK_c_5444_n N_CLK_c_5447_n N_CLK_c_5449_n N_CLK_c_5546_n N_CLK_c_5548_n \
 N_CLK_c_5549_n N_CLK_c_5452_n N_CLK_c_5453_n N_CLK_c_5699_p N_CLK_c_5701_p \
 N_CLK_c_5828_p N_CLK_c_5835_p N_CLK_c_5601_n N_CLK_c_5602_n N_CLK_c_5603_n \
 N_CLK_c_5604_n N_CLK_c_5607_n N_CLK_c_5624_n N_CLK_c_5627_n N_CLK_c_5629_n \
 N_CLK_c_5668_p N_CLK_c_5719_p N_CLK_c_5686_p N_CLK_c_5632_n N_CLK_c_5633_n \
 N_CLK_c_5266_n N_CLK_c_5294_n N_CLK_c_5398_n N_CLK_c_5296_n N_CLK_c_5426_n \
 N_CLK_c_5454_n N_CLK_c_5558_n N_CLK_c_5456_n N_CLK_c_5608_n N_CLK_c_5634_n \
 N_CLK_c_5693_p N_CLK_c_5636_n )  PM_TMRDFFQX1\%CLK
x_PM_TMRDFFQX1\%noxref_17 ( N_noxref_17_c_5945_n N_noxref_17_c_5946_n \
 N_noxref_17_c_5919_n N_noxref_17_c_5920_n N_noxref_17_c_5873_n \
 N_noxref_17_c_5877_n N_noxref_17_c_5879_n N_noxref_17_c_5883_n \
 N_noxref_17_c_5849_n N_noxref_17_c_6062_p N_noxref_17_c_5887_n \
 N_noxref_17_c_5850_n N_noxref_17_c_5851_n N_noxref_17_c_6006_n \
 N_noxref_17_c_5970_n N_noxref_17_M29_noxref_g N_noxref_17_M35_noxref_g \
 N_noxref_17_M104_noxref_g N_noxref_17_M105_noxref_g N_noxref_17_M116_noxref_g \
 N_noxref_17_M117_noxref_g N_noxref_17_c_5852_n N_noxref_17_c_5854_n \
 N_noxref_17_c_5855_n N_noxref_17_c_5856_n N_noxref_17_c_5857_n \
 N_noxref_17_c_5858_n N_noxref_17_c_5859_n N_noxref_17_c_5861_n \
 N_noxref_17_c_5862_n N_noxref_17_c_5864_n N_noxref_17_c_5865_n \
 N_noxref_17_c_5866_n N_noxref_17_c_5867_n N_noxref_17_c_5868_n \
 N_noxref_17_c_5869_n N_noxref_17_c_5871_n N_noxref_17_c_5902_n \
 N_noxref_17_c_5903_n N_noxref_17_M28_noxref_d N_noxref_17_M98_noxref_d \
 N_noxref_17_M100_noxref_d N_noxref_17_M102_noxref_d )  PM_TMRDFFQX1\%noxref_17
x_PM_TMRDFFQX1\%noxref_18 ( N_noxref_18_c_6120_n N_noxref_18_c_6126_n \
 N_noxref_18_c_6129_n N_noxref_18_c_6133_n N_noxref_18_c_6135_n \
 N_noxref_18_c_6104_n N_noxref_18_c_6239_p N_noxref_18_c_6105_n \
 N_noxref_18_c_6106_n N_noxref_18_c_6225_p N_noxref_18_M37_noxref_g \
 N_noxref_18_M120_noxref_g N_noxref_18_M121_noxref_g N_noxref_18_c_6107_n \
 N_noxref_18_c_6109_n N_noxref_18_c_6110_n N_noxref_18_c_6111_n \
 N_noxref_18_c_6112_n N_noxref_18_c_6113_n N_noxref_18_c_6114_n \
 N_noxref_18_c_6116_n N_noxref_18_c_6148_n N_noxref_18_M36_noxref_d \
 N_noxref_18_M116_noxref_d N_noxref_18_M118_noxref_d )  PM_TMRDFFQX1\%noxref_18
x_PM_TMRDFFQX1\%noxref_19 ( N_noxref_19_c_6282_n N_noxref_19_c_6284_n \
 N_noxref_19_c_6285_n N_noxref_19_c_6356_n N_noxref_19_c_6287_n \
 N_noxref_19_c_6294_n N_noxref_19_c_6262_n N_noxref_19_c_6358_n \
 N_noxref_19_c_6263_n N_noxref_19_c_6302_n N_noxref_19_c_6306_n \
 N_noxref_19_c_6308_n N_noxref_19_c_6265_n N_noxref_19_c_6576_p \
 N_noxref_19_c_6266_n N_noxref_19_c_6512_n N_noxref_19_c_6267_n \
 N_noxref_19_c_6453_n N_noxref_19_M26_noxref_g N_noxref_19_M32_noxref_g \
 N_noxref_19_M38_noxref_g N_noxref_19_M98_noxref_g N_noxref_19_M99_noxref_g \
 N_noxref_19_M110_noxref_g N_noxref_19_M111_noxref_g N_noxref_19_M122_noxref_g \
 N_noxref_19_M123_noxref_g N_noxref_19_c_6269_n N_noxref_19_c_6271_n \
 N_noxref_19_c_6272_n N_noxref_19_c_6273_n N_noxref_19_c_6274_n \
 N_noxref_19_c_6275_n N_noxref_19_c_6276_n N_noxref_19_c_6278_n \
 N_noxref_19_c_6467_n N_noxref_19_c_6330_n N_noxref_19_c_6367_n \
 N_noxref_19_c_6370_n N_noxref_19_c_6372_n N_noxref_19_c_6404_n \
 N_noxref_19_c_6406_n N_noxref_19_c_6407_n N_noxref_19_c_6375_n \
 N_noxref_19_c_6376_n N_noxref_19_c_6521_n N_noxref_19_c_6524_n \
 N_noxref_19_c_6526_n N_noxref_19_c_6537_p N_noxref_19_c_6566_p \
 N_noxref_19_c_6550_p N_noxref_19_c_6529_n N_noxref_19_c_6530_n \
 N_noxref_19_c_6377_n N_noxref_19_c_6413_n N_noxref_19_c_6379_n \
 N_noxref_19_c_6531_n N_noxref_19_c_6557_p N_noxref_19_c_6533_n \
 N_noxref_19_M34_noxref_d N_noxref_19_M112_noxref_d N_noxref_19_M114_noxref_d ) \
 PM_TMRDFFQX1\%noxref_19
x_PM_TMRDFFQX1\%noxref_20 ( N_noxref_20_c_6664_n N_noxref_20_c_6725_n \
 N_noxref_20_c_6665_n N_noxref_20_c_6667_n N_noxref_20_c_6669_n \
 N_noxref_20_c_6674_n N_noxref_20_c_6727_n N_noxref_20_c_6632_n \
 N_noxref_20_c_6680_n N_noxref_20_c_6684_n N_noxref_20_c_6686_n \
 N_noxref_20_c_6634_n N_noxref_20_c_6834_p N_noxref_20_c_6635_n \
 N_noxref_20_c_6636_n N_noxref_20_c_6639_n N_noxref_20_c_6815_n \
 N_noxref_20_M36_noxref_g N_noxref_20_M39_noxref_g N_noxref_20_M41_noxref_g \
 N_noxref_20_M118_noxref_g N_noxref_20_M119_noxref_g N_noxref_20_M124_noxref_g \
 N_noxref_20_M125_noxref_g N_noxref_20_M128_noxref_g N_noxref_20_M129_noxref_g \
 N_noxref_20_c_6735_n N_noxref_20_c_6738_n N_noxref_20_c_6740_n \
 N_noxref_20_c_6775_n N_noxref_20_c_6777_n N_noxref_20_c_6778_n \
 N_noxref_20_c_6743_n N_noxref_20_c_6744_n N_noxref_20_c_6641_n \
 N_noxref_20_c_6643_n N_noxref_20_c_6644_n N_noxref_20_c_6645_n \
 N_noxref_20_c_6646_n N_noxref_20_c_6647_n N_noxref_20_c_6847_p \
 N_noxref_20_c_6711_n N_noxref_20_c_6648_n N_noxref_20_c_6650_n \
 N_noxref_20_c_6651_n N_noxref_20_c_6653_n N_noxref_20_c_6916_p \
 N_noxref_20_c_6654_n N_noxref_20_c_6655_n N_noxref_20_c_6656_n \
 N_noxref_20_c_6657_n N_noxref_20_c_6659_n N_noxref_20_c_6745_n \
 N_noxref_20_c_6784_n N_noxref_20_c_6747_n N_noxref_20_c_6660_n \
 N_noxref_20_c_6713_n N_noxref_20_M38_noxref_d N_noxref_20_M120_noxref_d \
 N_noxref_20_M122_noxref_d )  PM_TMRDFFQX1\%noxref_20
x_PM_TMRDFFQX1\%noxref_21 ( N_noxref_21_c_6976_n N_noxref_21_c_6981_n \
 N_noxref_21_c_6983_n N_noxref_21_c_7007_n N_noxref_21_c_7010_n \
 N_noxref_21_c_7028_n N_noxref_21_c_7074_n N_noxref_21_c_7011_n \
 N_noxref_21_c_7031_n N_noxref_21_c_7035_n N_noxref_21_c_7037_n \
 N_noxref_21_c_7013_n N_noxref_21_c_7410_p N_noxref_21_c_7014_n \
 N_noxref_21_c_7042_n N_noxref_21_c_7016_n N_noxref_21_c_7018_n \
 N_noxref_21_c_7153_n N_noxref_21_c_7316_p N_noxref_21_M23_noxref_g \
 N_noxref_21_M40_noxref_g N_noxref_21_M44_noxref_g N_noxref_21_M92_noxref_g \
 N_noxref_21_M93_noxref_g N_noxref_21_M126_noxref_g N_noxref_21_M127_noxref_g \
 N_noxref_21_M134_noxref_g N_noxref_21_M135_noxref_g N_noxref_21_c_7082_n \
 N_noxref_21_c_7085_n N_noxref_21_c_7087_n N_noxref_21_c_7119_n \
 N_noxref_21_c_7121_n N_noxref_21_c_7122_n N_noxref_21_c_7090_n \
 N_noxref_21_c_7091_n N_noxref_21_c_7259_n N_noxref_21_c_7262_n \
 N_noxref_21_c_7264_n N_noxref_21_c_7059_n N_noxref_21_c_7347_p \
 N_noxref_21_c_7348_p N_noxref_21_c_7268_n N_noxref_21_c_7269_n \
 N_noxref_21_c_7312_p N_noxref_21_c_7323_p N_noxref_21_c_7314_p \
 N_noxref_21_c_7374_p N_noxref_21_c_7355_p N_noxref_21_c_7325_p \
 N_noxref_21_c_7322_p N_noxref_21_c_7326_p N_noxref_21_c_7092_n \
 N_noxref_21_c_7128_n N_noxref_21_c_7094_n N_noxref_21_c_7020_n \
 N_noxref_21_c_7470_p N_noxref_21_c_7060_n N_noxref_21_c_7299_p \
 N_noxref_21_c_7370_p N_noxref_21_c_7306_p N_noxref_21_M25_noxref_d \
 N_noxref_21_M94_noxref_d N_noxref_21_M96_noxref_d )  PM_TMRDFFQX1\%noxref_21
x_PM_TMRDFFQX1\%noxref_22 ( N_noxref_22_c_7482_n N_noxref_22_c_7488_n \
 N_noxref_22_c_7493_n N_noxref_22_c_7497_n N_noxref_22_c_7499_n \
 N_noxref_22_c_7502_n N_noxref_22_c_7528_n N_noxref_22_c_7504_n \
 N_noxref_22_c_7547_p N_noxref_22_M124_noxref_d N_noxref_22_M126_noxref_d \
 N_noxref_22_M128_noxref_s N_noxref_22_M129_noxref_d N_noxref_22_M131_noxref_d \
 )  PM_TMRDFFQX1\%noxref_22
x_PM_TMRDFFQX1\%noxref_23 ( N_noxref_23_c_7573_n N_noxref_23_c_7654_n \
 N_noxref_23_c_7574_n N_noxref_23_c_7717_n N_noxref_23_c_7589_n \
 N_noxref_23_c_7590_n N_noxref_23_c_7655_n N_noxref_23_c_7591_n \
 N_noxref_23_c_7616_n N_noxref_23_c_7620_n N_noxref_23_c_7622_n \
 N_noxref_23_c_7593_n N_noxref_23_c_7789_n N_noxref_23_c_7594_n \
 N_noxref_23_c_7595_n N_noxref_23_c_7597_n N_noxref_23_c_7733_n \
 N_noxref_23_M10_noxref_g N_noxref_23_M42_noxref_g N_noxref_23_M43_noxref_g \
 N_noxref_23_M66_noxref_g N_noxref_23_M67_noxref_g N_noxref_23_M130_noxref_g \
 N_noxref_23_M131_noxref_g N_noxref_23_M132_noxref_g N_noxref_23_M133_noxref_g \
 N_noxref_23_c_7663_n N_noxref_23_c_7666_n N_noxref_23_c_7668_n \
 N_noxref_23_c_7700_n N_noxref_23_c_7702_n N_noxref_23_c_7703_n \
 N_noxref_23_c_7671_n N_noxref_23_c_7672_n N_noxref_23_c_7865_n \
 N_noxref_23_c_7868_n N_noxref_23_c_7939_p N_noxref_23_c_7870_n \
 N_noxref_23_c_7967_p N_noxref_23_c_7968_p N_noxref_23_c_7641_n \
 N_noxref_23_c_7874_n N_noxref_23_c_7875_n N_noxref_23_c_7876_n \
 N_noxref_23_c_7598_n N_noxref_23_c_7599_n N_noxref_23_c_7601_n \
 N_noxref_23_c_7904_n N_noxref_23_c_7602_n N_noxref_23_c_7603_n \
 N_noxref_23_c_7604_n N_noxref_23_c_7906_n N_noxref_23_c_7642_n \
 N_noxref_23_c_7605_n N_noxref_23_c_7607_n N_noxref_23_c_7673_n \
 N_noxref_23_c_7709_n N_noxref_23_c_7675_n N_noxref_23_c_7608_n \
 N_noxref_23_M12_noxref_d N_noxref_23_M68_noxref_d N_noxref_23_M70_noxref_d )  \
 PM_TMRDFFQX1\%noxref_23
x_PM_TMRDFFQX1\%noxref_24 ( N_noxref_24_c_8032_n N_noxref_24_c_8036_n \
 N_noxref_24_c_8048_n N_noxref_24_c_8038_n N_noxref_24_c_8039_n \
 N_noxref_24_c_8040_n N_noxref_24_c_8060_n N_noxref_24_c_8042_n \
 N_noxref_24_c_8061_n N_noxref_24_M128_noxref_d N_noxref_24_M130_noxref_d \
 N_noxref_24_M132_noxref_s N_noxref_24_M133_noxref_d N_noxref_24_M135_noxref_d \
 )  PM_TMRDFFQX1\%noxref_24
x_PM_TMRDFFQX1\%noxref_25 ( N_noxref_25_c_8122_n N_noxref_25_c_8129_n \
 N_noxref_25_c_8130_n N_noxref_25_c_8137_n N_noxref_25_c_8138_n \
 N_noxref_25_c_8141_n N_noxref_25_c_8228_n N_noxref_25_c_8179_n \
 N_noxref_25_c_8180_n N_noxref_25_c_8142_n N_noxref_25_c_8235_n \
 N_noxref_25_c_8144_n N_noxref_25_c_8145_n N_noxref_25_c_8244_n \
 N_noxref_25_M45_noxref_g N_noxref_25_M136_noxref_g N_noxref_25_M137_noxref_g \
 N_noxref_25_c_8150_n N_noxref_25_c_8350_p N_noxref_25_c_8351_p \
 N_noxref_25_c_8152_n N_noxref_25_c_8194_n N_noxref_25_c_8195_n \
 N_noxref_25_c_8153_n N_noxref_25_c_8342_p N_noxref_25_c_8154_n \
 N_noxref_25_c_8156_n N_noxref_25_c_8157_n N_noxref_25_M40_noxref_d \
 N_noxref_25_M42_noxref_d N_noxref_25_M44_noxref_d N_noxref_25_M132_noxref_d \
 N_noxref_25_M134_noxref_d )  PM_TMRDFFQX1\%noxref_25
x_PM_TMRDFFQX1\%noxref_26 ( N_noxref_26_c_8379_n N_noxref_26_c_8362_n \
 N_noxref_26_c_8366_n N_noxref_26_c_8369_n N_noxref_26_c_8387_n \
 N_noxref_26_M0_noxref_s )  PM_TMRDFFQX1\%noxref_26
x_PM_TMRDFFQX1\%noxref_27 ( N_noxref_27_c_8409_n N_noxref_27_c_8411_n \
 N_noxref_27_c_8414_n N_noxref_27_c_8417_n N_noxref_27_c_8428_n \
 N_noxref_27_M1_noxref_d N_noxref_27_M2_noxref_s )  PM_TMRDFFQX1\%noxref_27
x_PM_TMRDFFQX1\%noxref_28 ( N_noxref_28_c_8481_n N_noxref_28_c_8462_n \
 N_noxref_28_c_8466_n N_noxref_28_c_8469_n N_noxref_28_c_8470_n \
 N_noxref_28_c_8473_n N_noxref_28_M3_noxref_s )  PM_TMRDFFQX1\%noxref_28
x_PM_TMRDFFQX1\%noxref_29 ( N_noxref_29_c_8535_n N_noxref_29_c_8516_n \
 N_noxref_29_c_8520_n N_noxref_29_c_8523_n N_noxref_29_c_8524_n \
 N_noxref_29_c_8527_n N_noxref_29_M5_noxref_s )  PM_TMRDFFQX1\%noxref_29
x_PM_TMRDFFQX1\%noxref_30 ( N_noxref_30_c_8587_n N_noxref_30_c_8568_n \
 N_noxref_30_c_8572_n N_noxref_30_c_8575_n N_noxref_30_c_8576_n \
 N_noxref_30_c_8579_n N_noxref_30_M7_noxref_s )  PM_TMRDFFQX1\%noxref_30
x_PM_TMRDFFQX1\%noxref_31 ( N_noxref_31_c_8639_n N_noxref_31_c_8620_n \
 N_noxref_31_c_8624_n N_noxref_31_c_8627_n N_noxref_31_c_8628_n \
 N_noxref_31_c_8631_n N_noxref_31_M9_noxref_s )  PM_TMRDFFQX1\%noxref_31
x_PM_TMRDFFQX1\%noxref_32 ( N_noxref_32_c_8691_n N_noxref_32_c_8672_n \
 N_noxref_32_c_8676_n N_noxref_32_c_8679_n N_noxref_32_c_8680_n \
 N_noxref_32_c_8683_n N_noxref_32_M11_noxref_s )  PM_TMRDFFQX1\%noxref_32
x_PM_TMRDFFQX1\%noxref_33 ( N_noxref_33_c_8741_n N_noxref_33_c_8724_n \
 N_noxref_33_c_8728_n N_noxref_33_c_8731_n N_noxref_33_c_8753_n \
 N_noxref_33_M13_noxref_s )  PM_TMRDFFQX1\%noxref_33
x_PM_TMRDFFQX1\%noxref_34 ( N_noxref_34_c_8774_n N_noxref_34_c_8776_n \
 N_noxref_34_c_8779_n N_noxref_34_c_8782_n N_noxref_34_c_8792_n \
 N_noxref_34_M14_noxref_d N_noxref_34_M15_noxref_s )  PM_TMRDFFQX1\%noxref_34
x_PM_TMRDFFQX1\%noxref_35 ( N_noxref_35_c_8846_n N_noxref_35_c_8827_n \
 N_noxref_35_c_8831_n N_noxref_35_c_8834_n N_noxref_35_c_8835_n \
 N_noxref_35_c_8838_n N_noxref_35_M16_noxref_s )  PM_TMRDFFQX1\%noxref_35
x_PM_TMRDFFQX1\%noxref_36 ( N_noxref_36_c_8900_n N_noxref_36_c_8881_n \
 N_noxref_36_c_8885_n N_noxref_36_c_8888_n N_noxref_36_c_8889_n \
 N_noxref_36_c_8892_n N_noxref_36_M18_noxref_s )  PM_TMRDFFQX1\%noxref_36
x_PM_TMRDFFQX1\%noxref_37 ( N_noxref_37_c_8952_n N_noxref_37_c_8933_n \
 N_noxref_37_c_8937_n N_noxref_37_c_8940_n N_noxref_37_c_8941_n \
 N_noxref_37_c_8944_n N_noxref_37_M20_noxref_s )  PM_TMRDFFQX1\%noxref_37
x_PM_TMRDFFQX1\%noxref_38 ( N_noxref_38_c_9004_n N_noxref_38_c_8985_n \
 N_noxref_38_c_8989_n N_noxref_38_c_8992_n N_noxref_38_c_8993_n \
 N_noxref_38_c_8996_n N_noxref_38_M22_noxref_s )  PM_TMRDFFQX1\%noxref_38
x_PM_TMRDFFQX1\%noxref_39 ( N_noxref_39_c_9058_n N_noxref_39_c_9039_n \
 N_noxref_39_c_9043_n N_noxref_39_c_9046_n N_noxref_39_c_9047_n \
 N_noxref_39_c_9050_n N_noxref_39_M24_noxref_s )  PM_TMRDFFQX1\%noxref_39