// File: TMRDFFSNQNX1.spi.pex
// Created: Tue Oct 15 15:52:31 2024
// Program "Calibre xRC"
// Version "v2023.2_27.15"
// Nominal Temperature: 30C
// Circuit Temperature: 30C
// 
simulator lang=spectre
subckt PM_TMRDFFSNQNX1\%GND ( 1 139 143 146 151 159 165 175 181 191 197 203 \
 211 219 227 237 245 253 259 269 275 285 291 297 305 313 321 331 339 347 353 \
 363 369 379 385 391 399 407 415 425 433 441 447 453 466 470 473 476 479 481 \
 483 485 488 491 494 496 498 500 503 506 509 511 513 515 518 520 521 522 523 \
 524 525 526 527 528 529 530 531 532 533 534 535 536 537 538 539 540 )
c976 ( 540 0 ) capacitor c=0.0215012f //x=80.91 //y=0.865
c977 ( 539 0 ) capacitor c=0.0215012f //x=77.58 //y=0.865
c978 ( 538 0 ) capacitor c=0.0207524f //x=74.25 //y=0.865
c979 ( 537 0 ) capacitor c=0.0226075f //x=69.335 //y=0.875
c980 ( 536 0 ) capacitor c=0.0207407f //x=66.11 //y=0.865
c981 ( 535 0 ) capacitor c=0.0207407f //x=62.78 //y=0.865
c982 ( 534 0 ) capacitor c=0.0225954f //x=57.865 //y=0.875
c983 ( 533 0 ) capacitor c=0.0226075f //x=53.055 //y=0.875
c984 ( 532 0 ) capacitor c=0.0207407f //x=49.83 //y=0.865
c985 ( 531 0 ) capacitor c=0.0226075f //x=44.915 //y=0.875
c986 ( 530 0 ) capacitor c=0.0207407f //x=41.69 //y=0.865
c987 ( 529 0 ) capacitor c=0.0207407f //x=38.36 //y=0.865
c988 ( 528 0 ) capacitor c=0.0225954f //x=33.445 //y=0.875
c989 ( 527 0 ) capacitor c=0.0226075f //x=28.635 //y=0.875
c990 ( 526 0 ) capacitor c=0.0207407f //x=25.41 //y=0.865
c991 ( 525 0 ) capacitor c=0.0226075f //x=20.495 //y=0.875
c992 ( 524 0 ) capacitor c=0.0207407f //x=17.27 //y=0.865
c993 ( 523 0 ) capacitor c=0.0207407f //x=13.94 //y=0.865
c994 ( 522 0 ) capacitor c=0.0226205f //x=9.025 //y=0.875
c995 ( 521 0 ) capacitor c=0.0226323f //x=4.215 //y=0.875
c996 ( 520 0 ) capacitor c=0.0207863f //x=0.99 //y=0.865
c997 ( 519 0 ) capacitor c=0.00440095f //x=81.1 //y=0
c998 ( 518 0 ) capacitor c=0.101477f //x=79.92 //y=0
c999 ( 517 0 ) capacitor c=0.00440095f //x=77.7 //y=0
c1000 ( 515 0 ) capacitor c=0.116995f //x=76.59 //y=0
c1001 ( 514 0 ) capacitor c=0.00440095f //x=74.44 //y=0
c1002 ( 513 0 ) capacitor c=0.106826f //x=73.26 //y=0
c1003 ( 512 0 ) capacitor c=0.00440144f //x=69.525 //y=0
c1004 ( 511 0 ) capacitor c=0.104091f //x=68.45 //y=0
c1005 ( 510 0 ) capacitor c=0.00440095f //x=66.3 //y=0
c1006 ( 509 0 ) capacitor c=0.105123f //x=65.12 //y=0
c1007 ( 508 0 ) capacitor c=0.00440095f //x=62.9 //y=0
c1008 ( 506 0 ) capacitor c=0.108248f //x=61.79 //y=0
c1009 ( 505 0 ) capacitor c=0.00440144f //x=58.09 //y=0
c1010 ( 503 0 ) capacitor c=0.107229f //x=56.98 //y=0
c1011 ( 502 0 ) capacitor c=0.00440144f //x=53.28 //y=0
c1012 ( 500 0 ) capacitor c=0.104113f //x=52.17 //y=0
c1013 ( 499 0 ) capacitor c=0.00440095f //x=50.02 //y=0
c1014 ( 498 0 ) capacitor c=0.108568f //x=48.84 //y=0
c1015 ( 497 0 ) capacitor c=0.00440144f //x=45.105 //y=0
c1016 ( 496 0 ) capacitor c=0.10408f //x=44.03 //y=0
c1017 ( 495 0 ) capacitor c=0.00440095f //x=41.88 //y=0
c1018 ( 494 0 ) capacitor c=0.104882f //x=40.7 //y=0
c1019 ( 493 0 ) capacitor c=0.00440095f //x=38.48 //y=0
c1020 ( 491 0 ) capacitor c=0.108248f //x=37.37 //y=0
c1021 ( 490 0 ) capacitor c=0.00440144f //x=33.67 //y=0
c1022 ( 488 0 ) capacitor c=0.107229f //x=32.56 //y=0
c1023 ( 487 0 ) capacitor c=0.00440144f //x=28.86 //y=0
c1024 ( 485 0 ) capacitor c=0.104143f //x=27.75 //y=0
c1025 ( 484 0 ) capacitor c=0.00440095f //x=25.6 //y=0
c1026 ( 483 0 ) capacitor c=0.108018f //x=24.42 //y=0
c1027 ( 482 0 ) capacitor c=0.00440144f //x=20.685 //y=0
c1028 ( 481 0 ) capacitor c=0.104091f //x=19.61 //y=0
c1029 ( 480 0 ) capacitor c=0.00440095f //x=17.46 //y=0
c1030 ( 479 0 ) capacitor c=0.105123f //x=16.28 //y=0
c1031 ( 478 0 ) capacitor c=0.00440095f //x=14.06 //y=0
c1032 ( 476 0 ) capacitor c=0.108248f //x=12.95 //y=0
c1033 ( 475 0 ) capacitor c=0.00440144f //x=9.25 //y=0
c1034 ( 473 0 ) capacitor c=0.108235f //x=8.14 //y=0
c1035 ( 472 0 ) capacitor c=0.00440144f //x=4.44 //y=0
c1036 ( 470 0 ) capacitor c=0.105313f //x=3.33 //y=0
c1037 ( 469 0 ) capacitor c=0.00440095f //x=1.18 //y=0
c1038 ( 466 0 ) capacitor c=0.258637f //x=82.51 //y=0
c1039 ( 453 0 ) capacitor c=0.0389876f //x=81.015 //y=0
c1040 ( 447 0 ) capacitor c=0.0716428f //x=79.75 //y=0
c1041 ( 441 0 ) capacitor c=0.0388276f //x=77.685 //y=0
c1042 ( 433 0 ) capacitor c=0.071962f //x=76.42 //y=0
c1043 ( 425 0 ) capacitor c=0.0391432f //x=74.355 //y=0
c1044 ( 415 0 ) capacitor c=0.133607f //x=73.09 //y=0
c1045 ( 407 0 ) capacitor c=0.0339325f //x=69.44 //y=0
c1046 ( 399 0 ) capacitor c=0.0718026f //x=68.28 //y=0
c1047 ( 391 0 ) capacitor c=0.0388888f //x=66.215 //y=0
c1048 ( 385 0 ) capacitor c=0.0718026f //x=64.95 //y=0
c1049 ( 379 0 ) capacitor c=0.0388888f //x=62.885 //y=0
c1050 ( 369 0 ) capacitor c=0.133362f //x=61.62 //y=0
c1051 ( 363 0 ) capacitor c=0.0339325f //x=57.97 //y=0
c1052 ( 353 0 ) capacitor c=0.133362f //x=56.81 //y=0
c1053 ( 347 0 ) capacitor c=0.0339325f //x=53.16 //y=0
c1054 ( 339 0 ) capacitor c=0.0718026f //x=52 //y=0
c1055 ( 331 0 ) capacitor c=0.0388888f //x=49.935 //y=0
c1056 ( 321 0 ) capacitor c=0.133362f //x=48.67 //y=0
c1057 ( 313 0 ) capacitor c=0.0339325f //x=45.02 //y=0
c1058 ( 305 0 ) capacitor c=0.0718026f //x=43.86 //y=0
c1059 ( 297 0 ) capacitor c=0.0388888f //x=41.795 //y=0
c1060 ( 291 0 ) capacitor c=0.0718026f //x=40.53 //y=0
c1061 ( 285 0 ) capacitor c=0.0388888f //x=38.465 //y=0
c1062 ( 275 0 ) capacitor c=0.133362f //x=37.2 //y=0
c1063 ( 269 0 ) capacitor c=0.0339325f //x=33.55 //y=0
c1064 ( 259 0 ) capacitor c=0.133362f //x=32.39 //y=0
c1065 ( 253 0 ) capacitor c=0.0339325f //x=28.74 //y=0
c1066 ( 245 0 ) capacitor c=0.0718026f //x=27.58 //y=0
c1067 ( 237 0 ) capacitor c=0.0388888f //x=25.515 //y=0
c1068 ( 227 0 ) capacitor c=0.133362f //x=24.25 //y=0
c1069 ( 219 0 ) capacitor c=0.0339325f //x=20.6 //y=0
c1070 ( 211 0 ) capacitor c=0.0718026f //x=19.44 //y=0
c1071 ( 203 0 ) capacitor c=0.0388888f //x=17.375 //y=0
c1072 ( 197 0 ) capacitor c=0.0718026f //x=16.11 //y=0
c1073 ( 191 0 ) capacitor c=0.0388888f //x=14.045 //y=0
c1074 ( 181 0 ) capacitor c=0.133404f //x=12.78 //y=0
c1075 ( 175 0 ) capacitor c=0.0339482f //x=9.13 //y=0
c1076 ( 165 0 ) capacitor c=0.133515f //x=7.97 //y=0
c1077 ( 159 0 ) capacitor c=0.0339482f //x=4.32 //y=0
c1078 ( 151 0 ) capacitor c=0.0720441f //x=3.16 //y=0
c1079 ( 146 0 ) capacitor c=0.179262f //x=0.74 //y=0
c1080 ( 143 0 ) capacitor c=0.0426751f //x=1.095 //y=0
c1081 ( 139 0 ) capacitor c=2.51766f //x=82.51 //y=0
r1082 (  464 466 ) resistor r=39.7983 //w=0.357 //l=1.11 //layer=li \
 //thickness=0.1 //x=81.4 //y=0 //x2=82.51 //y2=0
r1083 (  462 519 ) resistor r=2.94794 //w=0.34 //l=0.085 //layer=li \
 //thickness=0.1 //x=81.185 //y=0 //x2=81.1 //y2=0
r1084 (  462 464 ) resistor r=7.70868 //w=0.357 //l=0.215 //layer=li \
 //thickness=0.1 //x=81.185 //y=0 //x2=81.4 //y2=0
r1085 (  457 519 ) resistor r=4.11603 //w=0.68 //l=0.17 //layer=li \
 //thickness=0.1 //x=81.1 //y=0.17 //x2=81.1 //y2=0
r1086 (  457 540 ) resistor r=53.7326 //w=0.187 //l=0.785 //layer=li \
 //thickness=0.1 //x=81.1 //y=0.17 //x2=81.1 //y2=0.955
r1087 (  454 518 ) resistor r=5.4201 //w=0.34 //l=0.17 //layer=li \
 //thickness=0.1 //x=80.09 //y=0 //x2=79.92 //y2=0
r1088 (  454 456 ) resistor r=7.17087 //w=0.357 //l=0.2 //layer=li \
 //thickness=0.1 //x=80.09 //y=0 //x2=80.29 //y2=0
r1089 (  453 519 ) resistor r=2.94794 //w=0.34 //l=0.085 //layer=li \
 //thickness=0.1 //x=81.015 //y=0 //x2=81.1 //y2=0
r1090 (  453 456 ) resistor r=25.9944 //w=0.357 //l=0.725 //layer=li \
 //thickness=0.1 //x=81.015 //y=0 //x2=80.29 //y2=0
r1091 (  448 517 ) resistor r=2.94794 //w=0.34 //l=0.085 //layer=li \
 //thickness=0.1 //x=77.855 //y=0 //x2=77.77 //y2=0
r1092 (  448 450 ) resistor r=34.2409 //w=0.357 //l=0.955 //layer=li \
 //thickness=0.1 //x=77.855 //y=0 //x2=78.81 //y2=0
r1093 (  447 518 ) resistor r=5.4201 //w=0.34 //l=0.17 //layer=li \
 //thickness=0.1 //x=79.75 //y=0 //x2=79.92 //y2=0
r1094 (  447 450 ) resistor r=33.7031 //w=0.357 //l=0.94 //layer=li \
 //thickness=0.1 //x=79.75 //y=0 //x2=78.81 //y2=0
r1095 (  443 517 ) resistor r=4.11603 //w=0.68 //l=0.17 //layer=li \
 //thickness=0.1 //x=77.77 //y=0.17 //x2=77.77 //y2=0
r1096 (  443 539 ) resistor r=53.7326 //w=0.187 //l=0.785 //layer=li \
 //thickness=0.1 //x=77.77 //y=0.17 //x2=77.77 //y2=0.955
r1097 (  442 515 ) resistor r=5.4201 //w=0.34 //l=0.17 //layer=li \
 //thickness=0.1 //x=76.76 //y=0 //x2=76.59 //y2=0
r1098 (  441 517 ) resistor r=2.94794 //w=0.34 //l=0.085 //layer=li \
 //thickness=0.1 //x=77.685 //y=0 //x2=77.77 //y2=0
r1099 (  441 442 ) resistor r=33.1653 //w=0.357 //l=0.925 //layer=li \
 //thickness=0.1 //x=77.685 //y=0 //x2=76.76 //y2=0
r1100 (  436 438 ) resistor r=39.7983 //w=0.357 //l=1.11 //layer=li \
 //thickness=0.1 //x=75.11 //y=0 //x2=76.22 //y2=0
r1101 (  434 514 ) resistor r=2.94794 //w=0.34 //l=0.085 //layer=li \
 //thickness=0.1 //x=74.525 //y=0 //x2=74.44 //y2=0
r1102 (  434 436 ) resistor r=20.9748 //w=0.357 //l=0.585 //layer=li \
 //thickness=0.1 //x=74.525 //y=0 //x2=75.11 //y2=0
r1103 (  433 515 ) resistor r=5.4201 //w=0.34 //l=0.17 //layer=li \
 //thickness=0.1 //x=76.42 //y=0 //x2=76.59 //y2=0
r1104 (  433 438 ) resistor r=7.17087 //w=0.357 //l=0.2 //layer=li \
 //thickness=0.1 //x=76.42 //y=0 //x2=76.22 //y2=0
r1105 (  429 514 ) resistor r=4.11603 //w=0.68 //l=0.17 //layer=li \
 //thickness=0.1 //x=74.44 //y=0.17 //x2=74.44 //y2=0
r1106 (  429 538 ) resistor r=53.7326 //w=0.187 //l=0.785 //layer=li \
 //thickness=0.1 //x=74.44 //y=0.17 //x2=74.44 //y2=0.955
r1107 (  426 513 ) resistor r=5.4201 //w=0.34 //l=0.17 //layer=li \
 //thickness=0.1 //x=73.43 //y=0 //x2=73.26 //y2=0
r1108 (  426 428 ) resistor r=20.437 //w=0.357 //l=0.57 //layer=li \
 //thickness=0.1 //x=73.43 //y=0 //x2=74 //y2=0
r1109 (  425 514 ) resistor r=2.94794 //w=0.34 //l=0.085 //layer=li \
 //thickness=0.1 //x=74.355 //y=0 //x2=74.44 //y2=0
r1110 (  425 428 ) resistor r=12.7283 //w=0.357 //l=0.355 //layer=li \
 //thickness=0.1 //x=74.355 //y=0 //x2=74 //y2=0
r1111 (  420 422 ) resistor r=39.7983 //w=0.357 //l=1.11 //layer=li \
 //thickness=0.1 //x=71.41 //y=0 //x2=72.52 //y2=0
r1112 (  418 420 ) resistor r=39.7983 //w=0.357 //l=1.11 //layer=li \
 //thickness=0.1 //x=70.3 //y=0 //x2=71.41 //y2=0
r1113 (  416 512 ) resistor r=2.94794 //w=0.34 //l=0.085 //layer=li \
 //thickness=0.1 //x=69.61 //y=0 //x2=69.525 //y2=0
r1114 (  416 418 ) resistor r=24.7395 //w=0.357 //l=0.69 //layer=li \
 //thickness=0.1 //x=69.61 //y=0 //x2=70.3 //y2=0
r1115 (  415 513 ) resistor r=5.4201 //w=0.34 //l=0.17 //layer=li \
 //thickness=0.1 //x=73.09 //y=0 //x2=73.26 //y2=0
r1116 (  415 422 ) resistor r=20.437 //w=0.357 //l=0.57 //layer=li \
 //thickness=0.1 //x=73.09 //y=0 //x2=72.52 //y2=0
r1117 (  411 512 ) resistor r=4.11603 //w=0.68 //l=0.17 //layer=li \
 //thickness=0.1 //x=69.525 //y=0.17 //x2=69.525 //y2=0
r1118 (  411 537 ) resistor r=54.4171 //w=0.187 //l=0.795 //layer=li \
 //thickness=0.1 //x=69.525 //y=0.17 //x2=69.525 //y2=0.965
r1119 (  408 511 ) resistor r=5.4201 //w=0.34 //l=0.17 //layer=li \
 //thickness=0.1 //x=68.62 //y=0 //x2=68.45 //y2=0
r1120 (  408 410 ) resistor r=20.437 //w=0.357 //l=0.57 //layer=li \
 //thickness=0.1 //x=68.62 //y=0 //x2=69.19 //y2=0
r1121 (  407 512 ) resistor r=2.94794 //w=0.34 //l=0.085 //layer=li \
 //thickness=0.1 //x=69.44 //y=0 //x2=69.525 //y2=0
r1122 (  407 410 ) resistor r=8.96359 //w=0.357 //l=0.25 //layer=li \
 //thickness=0.1 //x=69.44 //y=0 //x2=69.19 //y2=0
r1123 (  402 404 ) resistor r=39.7983 //w=0.357 //l=1.11 //layer=li \
 //thickness=0.1 //x=66.6 //y=0 //x2=67.71 //y2=0
r1124 (  400 510 ) resistor r=2.94794 //w=0.34 //l=0.085 //layer=li \
 //thickness=0.1 //x=66.385 //y=0 //x2=66.3 //y2=0
r1125 (  400 402 ) resistor r=7.70868 //w=0.357 //l=0.215 //layer=li \
 //thickness=0.1 //x=66.385 //y=0 //x2=66.6 //y2=0
r1126 (  399 511 ) resistor r=5.4201 //w=0.34 //l=0.17 //layer=li \
 //thickness=0.1 //x=68.28 //y=0 //x2=68.45 //y2=0
r1127 (  399 404 ) resistor r=20.437 //w=0.357 //l=0.57 //layer=li \
 //thickness=0.1 //x=68.28 //y=0 //x2=67.71 //y2=0
r1128 (  395 510 ) resistor r=4.11603 //w=0.68 //l=0.17 //layer=li \
 //thickness=0.1 //x=66.3 //y=0.17 //x2=66.3 //y2=0
r1129 (  395 536 ) resistor r=53.7326 //w=0.187 //l=0.785 //layer=li \
 //thickness=0.1 //x=66.3 //y=0.17 //x2=66.3 //y2=0.955
r1130 (  392 509 ) resistor r=5.4201 //w=0.34 //l=0.17 //layer=li \
 //thickness=0.1 //x=65.29 //y=0 //x2=65.12 //y2=0
r1131 (  392 394 ) resistor r=7.17087 //w=0.357 //l=0.2 //layer=li \
 //thickness=0.1 //x=65.29 //y=0 //x2=65.49 //y2=0
r1132 (  391 510 ) resistor r=2.94794 //w=0.34 //l=0.085 //layer=li \
 //thickness=0.1 //x=66.215 //y=0 //x2=66.3 //y2=0
r1133 (  391 394 ) resistor r=25.9944 //w=0.357 //l=0.725 //layer=li \
 //thickness=0.1 //x=66.215 //y=0 //x2=65.49 //y2=0
r1134 (  386 508 ) resistor r=2.94794 //w=0.34 //l=0.085 //layer=li \
 //thickness=0.1 //x=63.055 //y=0 //x2=62.97 //y2=0
r1135 (  386 388 ) resistor r=34.2409 //w=0.357 //l=0.955 //layer=li \
 //thickness=0.1 //x=63.055 //y=0 //x2=64.01 //y2=0
r1136 (  385 509 ) resistor r=5.4201 //w=0.34 //l=0.17 //layer=li \
 //thickness=0.1 //x=64.95 //y=0 //x2=65.12 //y2=0
r1137 (  385 388 ) resistor r=33.7031 //w=0.357 //l=0.94 //layer=li \
 //thickness=0.1 //x=64.95 //y=0 //x2=64.01 //y2=0
r1138 (  381 508 ) resistor r=4.11603 //w=0.68 //l=0.17 //layer=li \
 //thickness=0.1 //x=62.97 //y=0.17 //x2=62.97 //y2=0
r1139 (  381 535 ) resistor r=53.7326 //w=0.187 //l=0.785 //layer=li \
 //thickness=0.1 //x=62.97 //y=0.17 //x2=62.97 //y2=0.955
r1140 (  380 506 ) resistor r=5.4201 //w=0.34 //l=0.17 //layer=li \
 //thickness=0.1 //x=61.96 //y=0 //x2=61.79 //y2=0
r1141 (  379 508 ) resistor r=2.94794 //w=0.34 //l=0.085 //layer=li \
 //thickness=0.1 //x=62.885 //y=0 //x2=62.97 //y2=0
r1142 (  379 380 ) resistor r=33.1653 //w=0.357 //l=0.925 //layer=li \
 //thickness=0.1 //x=62.885 //y=0 //x2=61.96 //y2=0
r1143 (  374 376 ) resistor r=39.7983 //w=0.357 //l=1.11 //layer=li \
 //thickness=0.1 //x=60.31 //y=0 //x2=61.42 //y2=0
r1144 (  372 374 ) resistor r=39.7983 //w=0.357 //l=1.11 //layer=li \
 //thickness=0.1 //x=59.2 //y=0 //x2=60.31 //y2=0
r1145 (  370 505 ) resistor r=2.94794 //w=0.34 //l=0.085 //layer=li \
 //thickness=0.1 //x=58.14 //y=0 //x2=58.055 //y2=0
r1146 (  370 372 ) resistor r=38.0056 //w=0.357 //l=1.06 //layer=li \
 //thickness=0.1 //x=58.14 //y=0 //x2=59.2 //y2=0
r1147 (  369 506 ) resistor r=5.4201 //w=0.34 //l=0.17 //layer=li \
 //thickness=0.1 //x=61.62 //y=0 //x2=61.79 //y2=0
r1148 (  369 376 ) resistor r=7.17087 //w=0.357 //l=0.2 //layer=li \
 //thickness=0.1 //x=61.62 //y=0 //x2=61.42 //y2=0
r1149 (  365 505 ) resistor r=4.11603 //w=0.68 //l=0.17 //layer=li \
 //thickness=0.1 //x=58.055 //y=0.17 //x2=58.055 //y2=0
r1150 (  365 534 ) resistor r=54.4171 //w=0.187 //l=0.795 //layer=li \
 //thickness=0.1 //x=58.055 //y=0.17 //x2=58.055 //y2=0.965
r1151 (  364 503 ) resistor r=5.4201 //w=0.34 //l=0.17 //layer=li \
 //thickness=0.1 //x=57.15 //y=0 //x2=56.98 //y2=0
r1152 (  363 505 ) resistor r=2.94794 //w=0.34 //l=0.085 //layer=li \
 //thickness=0.1 //x=57.97 //y=0 //x2=58.055 //y2=0
r1153 (  363 364 ) resistor r=29.4006 //w=0.357 //l=0.82 //layer=li \
 //thickness=0.1 //x=57.97 //y=0 //x2=57.15 //y2=0
r1154 (  358 360 ) resistor r=39.7983 //w=0.357 //l=1.11 //layer=li \
 //thickness=0.1 //x=55.5 //y=0 //x2=56.61 //y2=0
r1155 (  356 358 ) resistor r=39.7983 //w=0.357 //l=1.11 //layer=li \
 //thickness=0.1 //x=54.39 //y=0 //x2=55.5 //y2=0
r1156 (  354 502 ) resistor r=2.94794 //w=0.34 //l=0.085 //layer=li \
 //thickness=0.1 //x=53.33 //y=0 //x2=53.245 //y2=0
r1157 (  354 356 ) resistor r=38.0056 //w=0.357 //l=1.06 //layer=li \
 //thickness=0.1 //x=53.33 //y=0 //x2=54.39 //y2=0
r1158 (  353 503 ) resistor r=5.4201 //w=0.34 //l=0.17 //layer=li \
 //thickness=0.1 //x=56.81 //y=0 //x2=56.98 //y2=0
r1159 (  353 360 ) resistor r=7.17087 //w=0.357 //l=0.2 //layer=li \
 //thickness=0.1 //x=56.81 //y=0 //x2=56.61 //y2=0
r1160 (  349 502 ) resistor r=4.11603 //w=0.68 //l=0.17 //layer=li \
 //thickness=0.1 //x=53.245 //y=0.17 //x2=53.245 //y2=0
r1161 (  349 533 ) resistor r=54.4171 //w=0.187 //l=0.795 //layer=li \
 //thickness=0.1 //x=53.245 //y=0.17 //x2=53.245 //y2=0.965
r1162 (  348 500 ) resistor r=5.4201 //w=0.34 //l=0.17 //layer=li \
 //thickness=0.1 //x=52.34 //y=0 //x2=52.17 //y2=0
r1163 (  347 502 ) resistor r=2.94794 //w=0.34 //l=0.085 //layer=li \
 //thickness=0.1 //x=53.16 //y=0 //x2=53.245 //y2=0
r1164 (  347 348 ) resistor r=29.4006 //w=0.357 //l=0.82 //layer=li \
 //thickness=0.1 //x=53.16 //y=0 //x2=52.34 //y2=0
r1165 (  342 344 ) resistor r=39.7983 //w=0.357 //l=1.11 //layer=li \
 //thickness=0.1 //x=50.69 //y=0 //x2=51.8 //y2=0
r1166 (  340 499 ) resistor r=2.94794 //w=0.34 //l=0.085 //layer=li \
 //thickness=0.1 //x=50.105 //y=0 //x2=50.02 //y2=0
r1167 (  340 342 ) resistor r=20.9748 //w=0.357 //l=0.585 //layer=li \
 //thickness=0.1 //x=50.105 //y=0 //x2=50.69 //y2=0
r1168 (  339 500 ) resistor r=5.4201 //w=0.34 //l=0.17 //layer=li \
 //thickness=0.1 //x=52 //y=0 //x2=52.17 //y2=0
r1169 (  339 344 ) resistor r=7.17087 //w=0.357 //l=0.2 //layer=li \
 //thickness=0.1 //x=52 //y=0 //x2=51.8 //y2=0
r1170 (  335 499 ) resistor r=4.11603 //w=0.68 //l=0.17 //layer=li \
 //thickness=0.1 //x=50.02 //y=0.17 //x2=50.02 //y2=0
r1171 (  335 532 ) resistor r=53.7326 //w=0.187 //l=0.785 //layer=li \
 //thickness=0.1 //x=50.02 //y=0.17 //x2=50.02 //y2=0.955
r1172 (  332 498 ) resistor r=5.4201 //w=0.34 //l=0.17 //layer=li \
 //thickness=0.1 //x=49.01 //y=0 //x2=48.84 //y2=0
r1173 (  332 334 ) resistor r=20.437 //w=0.357 //l=0.57 //layer=li \
 //thickness=0.1 //x=49.01 //y=0 //x2=49.58 //y2=0
r1174 (  331 499 ) resistor r=2.94794 //w=0.34 //l=0.085 //layer=li \
 //thickness=0.1 //x=49.935 //y=0 //x2=50.02 //y2=0
r1175 (  331 334 ) resistor r=12.7283 //w=0.357 //l=0.355 //layer=li \
 //thickness=0.1 //x=49.935 //y=0 //x2=49.58 //y2=0
r1176 (  326 328 ) resistor r=39.7983 //w=0.357 //l=1.11 //layer=li \
 //thickness=0.1 //x=46.99 //y=0 //x2=48.1 //y2=0
r1177 (  324 326 ) resistor r=39.7983 //w=0.357 //l=1.11 //layer=li \
 //thickness=0.1 //x=45.88 //y=0 //x2=46.99 //y2=0
r1178 (  322 497 ) resistor r=2.94794 //w=0.34 //l=0.085 //layer=li \
 //thickness=0.1 //x=45.19 //y=0 //x2=45.105 //y2=0
r1179 (  322 324 ) resistor r=24.7395 //w=0.357 //l=0.69 //layer=li \
 //thickness=0.1 //x=45.19 //y=0 //x2=45.88 //y2=0
r1180 (  321 498 ) resistor r=5.4201 //w=0.34 //l=0.17 //layer=li \
 //thickness=0.1 //x=48.67 //y=0 //x2=48.84 //y2=0
r1181 (  321 328 ) resistor r=20.437 //w=0.357 //l=0.57 //layer=li \
 //thickness=0.1 //x=48.67 //y=0 //x2=48.1 //y2=0
r1182 (  317 497 ) resistor r=4.11603 //w=0.68 //l=0.17 //layer=li \
 //thickness=0.1 //x=45.105 //y=0.17 //x2=45.105 //y2=0
r1183 (  317 531 ) resistor r=54.4171 //w=0.187 //l=0.795 //layer=li \
 //thickness=0.1 //x=45.105 //y=0.17 //x2=45.105 //y2=0.965
r1184 (  314 496 ) resistor r=5.4201 //w=0.34 //l=0.17 //layer=li \
 //thickness=0.1 //x=44.2 //y=0 //x2=44.03 //y2=0
r1185 (  314 316 ) resistor r=20.437 //w=0.357 //l=0.57 //layer=li \
 //thickness=0.1 //x=44.2 //y=0 //x2=44.77 //y2=0
r1186 (  313 497 ) resistor r=2.94794 //w=0.34 //l=0.085 //layer=li \
 //thickness=0.1 //x=45.02 //y=0 //x2=45.105 //y2=0
r1187 (  313 316 ) resistor r=8.96359 //w=0.357 //l=0.25 //layer=li \
 //thickness=0.1 //x=45.02 //y=0 //x2=44.77 //y2=0
r1188 (  308 310 ) resistor r=39.7983 //w=0.357 //l=1.11 //layer=li \
 //thickness=0.1 //x=42.18 //y=0 //x2=43.29 //y2=0
r1189 (  306 495 ) resistor r=2.94794 //w=0.34 //l=0.085 //layer=li \
 //thickness=0.1 //x=41.965 //y=0 //x2=41.88 //y2=0
r1190 (  306 308 ) resistor r=7.70868 //w=0.357 //l=0.215 //layer=li \
 //thickness=0.1 //x=41.965 //y=0 //x2=42.18 //y2=0
r1191 (  305 496 ) resistor r=5.4201 //w=0.34 //l=0.17 //layer=li \
 //thickness=0.1 //x=43.86 //y=0 //x2=44.03 //y2=0
r1192 (  305 310 ) resistor r=20.437 //w=0.357 //l=0.57 //layer=li \
 //thickness=0.1 //x=43.86 //y=0 //x2=43.29 //y2=0
r1193 (  301 495 ) resistor r=4.11603 //w=0.68 //l=0.17 //layer=li \
 //thickness=0.1 //x=41.88 //y=0.17 //x2=41.88 //y2=0
r1194 (  301 530 ) resistor r=53.7326 //w=0.187 //l=0.785 //layer=li \
 //thickness=0.1 //x=41.88 //y=0.17 //x2=41.88 //y2=0.955
r1195 (  298 494 ) resistor r=5.4201 //w=0.34 //l=0.17 //layer=li \
 //thickness=0.1 //x=40.87 //y=0 //x2=40.7 //y2=0
r1196 (  298 300 ) resistor r=7.17087 //w=0.357 //l=0.2 //layer=li \
 //thickness=0.1 //x=40.87 //y=0 //x2=41.07 //y2=0
r1197 (  297 495 ) resistor r=2.94794 //w=0.34 //l=0.085 //layer=li \
 //thickness=0.1 //x=41.795 //y=0 //x2=41.88 //y2=0
r1198 (  297 300 ) resistor r=25.9944 //w=0.357 //l=0.725 //layer=li \
 //thickness=0.1 //x=41.795 //y=0 //x2=41.07 //y2=0
r1199 (  292 493 ) resistor r=2.94794 //w=0.34 //l=0.085 //layer=li \
 //thickness=0.1 //x=38.635 //y=0 //x2=38.55 //y2=0
r1200 (  292 294 ) resistor r=34.2409 //w=0.357 //l=0.955 //layer=li \
 //thickness=0.1 //x=38.635 //y=0 //x2=39.59 //y2=0
r1201 (  291 494 ) resistor r=5.4201 //w=0.34 //l=0.17 //layer=li \
 //thickness=0.1 //x=40.53 //y=0 //x2=40.7 //y2=0
r1202 (  291 294 ) resistor r=33.7031 //w=0.357 //l=0.94 //layer=li \
 //thickness=0.1 //x=40.53 //y=0 //x2=39.59 //y2=0
r1203 (  287 493 ) resistor r=4.11603 //w=0.68 //l=0.17 //layer=li \
 //thickness=0.1 //x=38.55 //y=0.17 //x2=38.55 //y2=0
r1204 (  287 529 ) resistor r=53.7326 //w=0.187 //l=0.785 //layer=li \
 //thickness=0.1 //x=38.55 //y=0.17 //x2=38.55 //y2=0.955
r1205 (  286 491 ) resistor r=5.4201 //w=0.34 //l=0.17 //layer=li \
 //thickness=0.1 //x=37.54 //y=0 //x2=37.37 //y2=0
r1206 (  285 493 ) resistor r=2.94794 //w=0.34 //l=0.085 //layer=li \
 //thickness=0.1 //x=38.465 //y=0 //x2=38.55 //y2=0
r1207 (  285 286 ) resistor r=33.1653 //w=0.357 //l=0.925 //layer=li \
 //thickness=0.1 //x=38.465 //y=0 //x2=37.54 //y2=0
r1208 (  280 282 ) resistor r=39.7983 //w=0.357 //l=1.11 //layer=li \
 //thickness=0.1 //x=35.89 //y=0 //x2=37 //y2=0
r1209 (  278 280 ) resistor r=39.7983 //w=0.357 //l=1.11 //layer=li \
 //thickness=0.1 //x=34.78 //y=0 //x2=35.89 //y2=0
r1210 (  276 490 ) resistor r=2.94794 //w=0.34 //l=0.085 //layer=li \
 //thickness=0.1 //x=33.72 //y=0 //x2=33.635 //y2=0
r1211 (  276 278 ) resistor r=38.0056 //w=0.357 //l=1.06 //layer=li \
 //thickness=0.1 //x=33.72 //y=0 //x2=34.78 //y2=0
r1212 (  275 491 ) resistor r=5.4201 //w=0.34 //l=0.17 //layer=li \
 //thickness=0.1 //x=37.2 //y=0 //x2=37.37 //y2=0
r1213 (  275 282 ) resistor r=7.17087 //w=0.357 //l=0.2 //layer=li \
 //thickness=0.1 //x=37.2 //y=0 //x2=37 //y2=0
r1214 (  271 490 ) resistor r=4.11603 //w=0.68 //l=0.17 //layer=li \
 //thickness=0.1 //x=33.635 //y=0.17 //x2=33.635 //y2=0
r1215 (  271 528 ) resistor r=54.4171 //w=0.187 //l=0.795 //layer=li \
 //thickness=0.1 //x=33.635 //y=0.17 //x2=33.635 //y2=0.965
r1216 (  270 488 ) resistor r=5.4201 //w=0.34 //l=0.17 //layer=li \
 //thickness=0.1 //x=32.73 //y=0 //x2=32.56 //y2=0
r1217 (  269 490 ) resistor r=2.94794 //w=0.34 //l=0.085 //layer=li \
 //thickness=0.1 //x=33.55 //y=0 //x2=33.635 //y2=0
r1218 (  269 270 ) resistor r=29.4006 //w=0.357 //l=0.82 //layer=li \
 //thickness=0.1 //x=33.55 //y=0 //x2=32.73 //y2=0
r1219 (  264 266 ) resistor r=39.7983 //w=0.357 //l=1.11 //layer=li \
 //thickness=0.1 //x=31.08 //y=0 //x2=32.19 //y2=0
r1220 (  262 264 ) resistor r=39.7983 //w=0.357 //l=1.11 //layer=li \
 //thickness=0.1 //x=29.97 //y=0 //x2=31.08 //y2=0
r1221 (  260 487 ) resistor r=2.94794 //w=0.34 //l=0.085 //layer=li \
 //thickness=0.1 //x=28.91 //y=0 //x2=28.825 //y2=0
r1222 (  260 262 ) resistor r=38.0056 //w=0.357 //l=1.06 //layer=li \
 //thickness=0.1 //x=28.91 //y=0 //x2=29.97 //y2=0
r1223 (  259 488 ) resistor r=5.4201 //w=0.34 //l=0.17 //layer=li \
 //thickness=0.1 //x=32.39 //y=0 //x2=32.56 //y2=0
r1224 (  259 266 ) resistor r=7.17087 //w=0.357 //l=0.2 //layer=li \
 //thickness=0.1 //x=32.39 //y=0 //x2=32.19 //y2=0
r1225 (  255 487 ) resistor r=4.11603 //w=0.68 //l=0.17 //layer=li \
 //thickness=0.1 //x=28.825 //y=0.17 //x2=28.825 //y2=0
r1226 (  255 527 ) resistor r=54.4171 //w=0.187 //l=0.795 //layer=li \
 //thickness=0.1 //x=28.825 //y=0.17 //x2=28.825 //y2=0.965
r1227 (  254 485 ) resistor r=5.4201 //w=0.34 //l=0.17 //layer=li \
 //thickness=0.1 //x=27.92 //y=0 //x2=27.75 //y2=0
r1228 (  253 487 ) resistor r=2.94794 //w=0.34 //l=0.085 //layer=li \
 //thickness=0.1 //x=28.74 //y=0 //x2=28.825 //y2=0
r1229 (  253 254 ) resistor r=29.4006 //w=0.357 //l=0.82 //layer=li \
 //thickness=0.1 //x=28.74 //y=0 //x2=27.92 //y2=0
r1230 (  248 250 ) resistor r=39.7983 //w=0.357 //l=1.11 //layer=li \
 //thickness=0.1 //x=26.27 //y=0 //x2=27.38 //y2=0
r1231 (  246 484 ) resistor r=2.94794 //w=0.34 //l=0.085 //layer=li \
 //thickness=0.1 //x=25.685 //y=0 //x2=25.6 //y2=0
r1232 (  246 248 ) resistor r=20.9748 //w=0.357 //l=0.585 //layer=li \
 //thickness=0.1 //x=25.685 //y=0 //x2=26.27 //y2=0
r1233 (  245 485 ) resistor r=5.4201 //w=0.34 //l=0.17 //layer=li \
 //thickness=0.1 //x=27.58 //y=0 //x2=27.75 //y2=0
r1234 (  245 250 ) resistor r=7.17087 //w=0.357 //l=0.2 //layer=li \
 //thickness=0.1 //x=27.58 //y=0 //x2=27.38 //y2=0
r1235 (  241 484 ) resistor r=4.11603 //w=0.68 //l=0.17 //layer=li \
 //thickness=0.1 //x=25.6 //y=0.17 //x2=25.6 //y2=0
r1236 (  241 526 ) resistor r=53.7326 //w=0.187 //l=0.785 //layer=li \
 //thickness=0.1 //x=25.6 //y=0.17 //x2=25.6 //y2=0.955
r1237 (  238 483 ) resistor r=5.4201 //w=0.34 //l=0.17 //layer=li \
 //thickness=0.1 //x=24.59 //y=0 //x2=24.42 //y2=0
r1238 (  238 240 ) resistor r=20.437 //w=0.357 //l=0.57 //layer=li \
 //thickness=0.1 //x=24.59 //y=0 //x2=25.16 //y2=0
r1239 (  237 484 ) resistor r=2.94794 //w=0.34 //l=0.085 //layer=li \
 //thickness=0.1 //x=25.515 //y=0 //x2=25.6 //y2=0
r1240 (  237 240 ) resistor r=12.7283 //w=0.357 //l=0.355 //layer=li \
 //thickness=0.1 //x=25.515 //y=0 //x2=25.16 //y2=0
r1241 (  232 234 ) resistor r=39.7983 //w=0.357 //l=1.11 //layer=li \
 //thickness=0.1 //x=22.57 //y=0 //x2=23.68 //y2=0
r1242 (  230 232 ) resistor r=39.7983 //w=0.357 //l=1.11 //layer=li \
 //thickness=0.1 //x=21.46 //y=0 //x2=22.57 //y2=0
r1243 (  228 482 ) resistor r=2.94794 //w=0.34 //l=0.085 //layer=li \
 //thickness=0.1 //x=20.77 //y=0 //x2=20.685 //y2=0
r1244 (  228 230 ) resistor r=24.7395 //w=0.357 //l=0.69 //layer=li \
 //thickness=0.1 //x=20.77 //y=0 //x2=21.46 //y2=0
r1245 (  227 483 ) resistor r=5.4201 //w=0.34 //l=0.17 //layer=li \
 //thickness=0.1 //x=24.25 //y=0 //x2=24.42 //y2=0
r1246 (  227 234 ) resistor r=20.437 //w=0.357 //l=0.57 //layer=li \
 //thickness=0.1 //x=24.25 //y=0 //x2=23.68 //y2=0
r1247 (  223 482 ) resistor r=4.11603 //w=0.68 //l=0.17 //layer=li \
 //thickness=0.1 //x=20.685 //y=0.17 //x2=20.685 //y2=0
r1248 (  223 525 ) resistor r=54.4171 //w=0.187 //l=0.795 //layer=li \
 //thickness=0.1 //x=20.685 //y=0.17 //x2=20.685 //y2=0.965
r1249 (  220 481 ) resistor r=5.4201 //w=0.34 //l=0.17 //layer=li \
 //thickness=0.1 //x=19.78 //y=0 //x2=19.61 //y2=0
r1250 (  220 222 ) resistor r=20.437 //w=0.357 //l=0.57 //layer=li \
 //thickness=0.1 //x=19.78 //y=0 //x2=20.35 //y2=0
r1251 (  219 482 ) resistor r=2.94794 //w=0.34 //l=0.085 //layer=li \
 //thickness=0.1 //x=20.6 //y=0 //x2=20.685 //y2=0
r1252 (  219 222 ) resistor r=8.96359 //w=0.357 //l=0.25 //layer=li \
 //thickness=0.1 //x=20.6 //y=0 //x2=20.35 //y2=0
r1253 (  214 216 ) resistor r=39.7983 //w=0.357 //l=1.11 //layer=li \
 //thickness=0.1 //x=17.76 //y=0 //x2=18.87 //y2=0
r1254 (  212 480 ) resistor r=2.94794 //w=0.34 //l=0.085 //layer=li \
 //thickness=0.1 //x=17.545 //y=0 //x2=17.46 //y2=0
r1255 (  212 214 ) resistor r=7.70868 //w=0.357 //l=0.215 //layer=li \
 //thickness=0.1 //x=17.545 //y=0 //x2=17.76 //y2=0
r1256 (  211 481 ) resistor r=5.4201 //w=0.34 //l=0.17 //layer=li \
 //thickness=0.1 //x=19.44 //y=0 //x2=19.61 //y2=0
r1257 (  211 216 ) resistor r=20.437 //w=0.357 //l=0.57 //layer=li \
 //thickness=0.1 //x=19.44 //y=0 //x2=18.87 //y2=0
r1258 (  207 480 ) resistor r=4.11603 //w=0.68 //l=0.17 //layer=li \
 //thickness=0.1 //x=17.46 //y=0.17 //x2=17.46 //y2=0
r1259 (  207 524 ) resistor r=53.7326 //w=0.187 //l=0.785 //layer=li \
 //thickness=0.1 //x=17.46 //y=0.17 //x2=17.46 //y2=0.955
r1260 (  204 479 ) resistor r=5.4201 //w=0.34 //l=0.17 //layer=li \
 //thickness=0.1 //x=16.45 //y=0 //x2=16.28 //y2=0
r1261 (  204 206 ) resistor r=7.17087 //w=0.357 //l=0.2 //layer=li \
 //thickness=0.1 //x=16.45 //y=0 //x2=16.65 //y2=0
r1262 (  203 480 ) resistor r=2.94794 //w=0.34 //l=0.085 //layer=li \
 //thickness=0.1 //x=17.375 //y=0 //x2=17.46 //y2=0
r1263 (  203 206 ) resistor r=25.9944 //w=0.357 //l=0.725 //layer=li \
 //thickness=0.1 //x=17.375 //y=0 //x2=16.65 //y2=0
r1264 (  198 478 ) resistor r=2.94794 //w=0.34 //l=0.085 //layer=li \
 //thickness=0.1 //x=14.215 //y=0 //x2=14.13 //y2=0
r1265 (  198 200 ) resistor r=34.2409 //w=0.357 //l=0.955 //layer=li \
 //thickness=0.1 //x=14.215 //y=0 //x2=15.17 //y2=0
r1266 (  197 479 ) resistor r=5.4201 //w=0.34 //l=0.17 //layer=li \
 //thickness=0.1 //x=16.11 //y=0 //x2=16.28 //y2=0
r1267 (  197 200 ) resistor r=33.7031 //w=0.357 //l=0.94 //layer=li \
 //thickness=0.1 //x=16.11 //y=0 //x2=15.17 //y2=0
r1268 (  193 478 ) resistor r=4.11603 //w=0.68 //l=0.17 //layer=li \
 //thickness=0.1 //x=14.13 //y=0.17 //x2=14.13 //y2=0
r1269 (  193 523 ) resistor r=53.7326 //w=0.187 //l=0.785 //layer=li \
 //thickness=0.1 //x=14.13 //y=0.17 //x2=14.13 //y2=0.955
r1270 (  192 476 ) resistor r=5.4201 //w=0.34 //l=0.17 //layer=li \
 //thickness=0.1 //x=13.12 //y=0 //x2=12.95 //y2=0
r1271 (  191 478 ) resistor r=2.94794 //w=0.34 //l=0.085 //layer=li \
 //thickness=0.1 //x=14.045 //y=0 //x2=14.13 //y2=0
r1272 (  191 192 ) resistor r=33.1653 //w=0.357 //l=0.925 //layer=li \
 //thickness=0.1 //x=14.045 //y=0 //x2=13.12 //y2=0
r1273 (  186 188 ) resistor r=39.7983 //w=0.357 //l=1.11 //layer=li \
 //thickness=0.1 //x=11.47 //y=0 //x2=12.58 //y2=0
r1274 (  184 186 ) resistor r=39.7983 //w=0.357 //l=1.11 //layer=li \
 //thickness=0.1 //x=10.36 //y=0 //x2=11.47 //y2=0