// File: TMRDFFRNQNX1.spi.TMRDFFRNQNX1.pxi
// Created: Tue Oct 15 15:52:03 2024
// 
simulator lang=spectre
x_PM_TMRDFFRNQNX1\%GND ( GND N_GND_c_23_p N_GND_c_95_p N_GND_c_1_p \
 N_GND_c_24_p N_GND_c_25_p N_GND_c_71_p N_GND_c_32_p N_GND_c_39_p N_GND_c_47_p \
 N_GND_c_54_p N_GND_c_74_p N_GND_c_81_p N_GND_c_105_p N_GND_c_112_p \
 N_GND_c_190_p N_GND_c_197_p N_GND_c_150_p N_GND_c_157_p N_GND_c_120_p \
 N_GND_c_127_p N_GND_c_134_p N_GND_c_141_p N_GND_c_160_p N_GND_c_167_p \
 N_GND_c_173_p N_GND_c_180_p N_GND_c_293_p N_GND_c_294_p N_GND_c_227_p \
 N_GND_c_234_p N_GND_c_303_p N_GND_c_304_p N_GND_c_305_p N_GND_c_306_p \
 N_GND_c_237_p N_GND_c_244_p N_GND_c_342_p N_GND_c_349_p N_GND_c_388_p \
 N_GND_c_395_p N_GND_c_398_p N_GND_c_404_p N_GND_c_457_p N_GND_c_2_p \
 N_GND_c_3_p N_GND_c_4_p N_GND_c_5_p N_GND_c_6_p N_GND_c_7_p N_GND_c_8_p \
 N_GND_c_9_p N_GND_c_10_p N_GND_c_11_p N_GND_c_12_p N_GND_c_13_p N_GND_c_14_p \
 N_GND_c_15_p N_GND_c_16_p N_GND_c_17_p N_GND_c_18_p N_GND_c_19_p N_GND_c_20_p \
 N_GND_c_21_p N_GND_c_22_p N_GND_M0_noxref_d N_GND_M3_noxref_d \
 N_GND_M6_noxref_d N_GND_M8_noxref_d N_GND_M11_noxref_d N_GND_M14_noxref_d \
 N_GND_M16_noxref_d N_GND_M19_noxref_d N_GND_M22_noxref_d N_GND_M24_noxref_d \
 N_GND_M27_noxref_d N_GND_M30_noxref_d N_GND_M32_noxref_d N_GND_M35_noxref_d \
 N_GND_M38_noxref_d N_GND_M40_noxref_d N_GND_M43_noxref_d N_GND_M46_noxref_d \
 N_GND_M48_noxref_d N_GND_M50_noxref_d N_GND_M52_noxref_d )  \
 PM_TMRDFFRNQNX1\%GND
x_PM_TMRDFFRNQNX1\%VDD ( VDD N_VDD_c_1015_p N_VDD_c_992_n N_VDD_c_1089_p \
 N_VDD_c_1090_p N_VDD_c_1033_p N_VDD_c_1100_p N_VDD_c_1480_p N_VDD_c_1016_p \
 N_VDD_c_1017_p N_VDD_c_1023_p N_VDD_c_1027_p N_VDD_c_1483_p N_VDD_c_1031_p \
 N_VDD_c_1059_p N_VDD_c_1485_p N_VDD_c_1486_p N_VDD_c_1071_p N_VDD_c_1156_p \
 N_VDD_c_1162_p N_VDD_c_1166_p N_VDD_c_1498_p N_VDD_c_1113_p N_VDD_c_1171_p \
 N_VDD_c_1177_p N_VDD_c_1181_p N_VDD_c_1501_p N_VDD_c_1185_p N_VDD_c_1202_p \
 N_VDD_c_1503_p N_VDD_c_1504_p N_VDD_c_1315_p N_VDD_c_1316_p N_VDD_c_1259_p \
 N_VDD_c_1326_p N_VDD_c_1516_p N_VDD_c_1242_p N_VDD_c_1243_p N_VDD_c_1249_p \
 N_VDD_c_1253_p N_VDD_c_1519_p N_VDD_c_1257_p N_VDD_c_1285_p N_VDD_c_1521_p \
 N_VDD_c_1522_p N_VDD_c_1297_p N_VDD_c_1414_p N_VDD_c_1420_p N_VDD_c_1424_p \
 N_VDD_c_1534_p N_VDD_c_1339_p N_VDD_c_1364_p N_VDD_c_1370_p N_VDD_c_1374_p \
 N_VDD_c_1537_p N_VDD_c_1378_p N_VDD_c_1438_p N_VDD_c_1539_p N_VDD_c_1540_p \
 N_VDD_c_1541_p N_VDD_c_1596_p N_VDD_c_1612_p N_VDD_c_1551_p N_VDD_c_1552_p \
 N_VDD_c_1553_p N_VDD_c_1474_p N_VDD_c_1688_p N_VDD_c_1554_p N_VDD_c_1555_p \
 N_VDD_c_1556_p N_VDD_c_1771_p N_VDD_c_1557_p N_VDD_c_1558_p N_VDD_c_1559_p \
 N_VDD_c_1600_p N_VDD_c_1692_p N_VDD_c_1706_p N_VDD_c_1707_p N_VDD_c_1629_p \
 N_VDD_c_1696_p N_VDD_c_1755_p N_VDD_c_1715_p N_VDD_c_1716_p N_VDD_c_1717_p \
 N_VDD_c_1780_p N_VDD_c_1825_p N_VDD_c_1820_p N_VDD_c_1978_p N_VDD_c_1999_p \
 N_VDD_c_1900_p N_VDD_c_993_n N_VDD_c_994_n N_VDD_c_995_n N_VDD_c_996_n \
 N_VDD_c_997_n N_VDD_c_998_n N_VDD_c_999_n N_VDD_c_1000_n N_VDD_c_1001_n \
 N_VDD_c_1002_n N_VDD_c_1003_n N_VDD_c_1004_n N_VDD_c_1005_n N_VDD_c_1006_n \
 N_VDD_c_1007_n N_VDD_c_1008_n N_VDD_c_1009_n N_VDD_c_1010_n N_VDD_c_1011_n \
 N_VDD_c_1012_n N_VDD_c_1013_n N_VDD_M54_noxref_s N_VDD_M55_noxref_d \
 N_VDD_M57_noxref_d N_VDD_M59_noxref_d N_VDD_M60_noxref_s N_VDD_M61_noxref_d \
 N_VDD_M63_noxref_d N_VDD_M65_noxref_d N_VDD_M66_noxref_s N_VDD_M67_noxref_d \
 N_VDD_M69_noxref_d N_VDD_M70_noxref_s N_VDD_M71_noxref_d N_VDD_M73_noxref_d \
 N_VDD_M75_noxref_d N_VDD_M76_noxref_s N_VDD_M77_noxref_d N_VDD_M79_noxref_d \
 N_VDD_M81_noxref_d N_VDD_M82_noxref_s N_VDD_M83_noxref_d N_VDD_M85_noxref_d \
 N_VDD_M86_noxref_s N_VDD_M87_noxref_d N_VDD_M89_noxref_d N_VDD_M91_noxref_d \
 N_VDD_M92_noxref_s N_VDD_M93_noxref_d N_VDD_M95_noxref_d N_VDD_M97_noxref_d \
 N_VDD_M98_noxref_s N_VDD_M99_noxref_d N_VDD_M101_noxref_d N_VDD_M102_noxref_s \
 N_VDD_M103_noxref_d N_VDD_M105_noxref_d N_VDD_M107_noxref_d \
 N_VDD_M108_noxref_s N_VDD_M109_noxref_d N_VDD_M111_noxref_d \
 N_VDD_M113_noxref_d N_VDD_M114_noxref_s N_VDD_M115_noxref_d \
 N_VDD_M117_noxref_d N_VDD_M118_noxref_s N_VDD_M119_noxref_d \
 N_VDD_M121_noxref_d N_VDD_M123_noxref_d N_VDD_M124_noxref_s \
 N_VDD_M125_noxref_d N_VDD_M127_noxref_d N_VDD_M129_noxref_d \
 N_VDD_M130_noxref_s N_VDD_M131_noxref_d N_VDD_M133_noxref_d \
 N_VDD_M134_noxref_s N_VDD_M135_noxref_d N_VDD_M137_noxref_d \
 N_VDD_M139_noxref_d N_VDD_M140_noxref_s N_VDD_M141_noxref_d \
 N_VDD_M143_noxref_d N_VDD_M145_noxref_d N_VDD_M146_noxref_s \
 N_VDD_M147_noxref_d N_VDD_M149_noxref_d N_VDD_M150_noxref_s \
 N_VDD_M151_noxref_d N_VDD_M153_noxref_d )  PM_TMRDFFRNQNX1\%VDD
x_PM_TMRDFFRNQNX1\%noxref_3 ( N_noxref_3_c_2093_n N_noxref_3_c_2097_n \
 N_noxref_3_c_2098_n N_noxref_3_c_2169_p N_noxref_3_c_2099_n \
 N_noxref_3_c_2114_n N_noxref_3_c_2118_n N_noxref_3_c_2120_n \
 N_noxref_3_c_2124_n N_noxref_3_c_2100_n N_noxref_3_c_2281_p \
 N_noxref_3_c_2128_n N_noxref_3_c_2101_n N_noxref_3_c_2249_p \
 N_noxref_3_c_2291_p N_noxref_3_M2_noxref_g N_noxref_3_M6_noxref_g \
 N_noxref_3_M58_noxref_g N_noxref_3_M59_noxref_g N_noxref_3_M66_noxref_g \
 N_noxref_3_M67_noxref_g N_noxref_3_c_2194_p N_noxref_3_c_2195_p \
 N_noxref_3_c_2196_p N_noxref_3_c_2197_p N_noxref_3_c_2177_p \
 N_noxref_3_c_2199_p N_noxref_3_c_2178_p N_noxref_3_c_2102_n \
 N_noxref_3_c_2104_n N_noxref_3_c_2105_n N_noxref_3_c_2106_n \
 N_noxref_3_c_2107_n N_noxref_3_c_2108_n N_noxref_3_c_2109_n \
 N_noxref_3_c_2111_n N_noxref_3_c_2183_p N_noxref_3_c_2184_p \
 N_noxref_3_c_2176_p N_noxref_3_c_2140_n N_noxref_3_M5_noxref_d \
 N_noxref_3_M60_noxref_d N_noxref_3_M62_noxref_d N_noxref_3_M64_noxref_d )  \
 PM_TMRDFFRNQNX1\%noxref_3
x_PM_TMRDFFRNQNX1\%noxref_4 ( N_noxref_4_c_2343_n N_noxref_4_c_2391_n \
 N_noxref_4_c_2360_n N_noxref_4_c_2364_n N_noxref_4_c_2366_n \
 N_noxref_4_c_2344_n N_noxref_4_c_2472_p N_noxref_4_c_2345_n \
 N_noxref_4_c_2346_n N_noxref_4_c_2425_p N_noxref_4_M8_noxref_g \
 N_noxref_4_M70_noxref_g N_noxref_4_M71_noxref_g N_noxref_4_c_2347_n \
 N_noxref_4_c_2349_n N_noxref_4_c_2350_n N_noxref_4_c_2351_n \
 N_noxref_4_c_2352_n N_noxref_4_c_2353_n N_noxref_4_c_2354_n \
 N_noxref_4_c_2356_n N_noxref_4_c_2416_p N_noxref_4_c_2378_n \
 N_noxref_4_M7_noxref_d N_noxref_4_M66_noxref_d N_noxref_4_M68_noxref_d )  \
 PM_TMRDFFRNQNX1\%noxref_4
x_PM_TMRDFFRNQNX1\%noxref_5 ( N_noxref_5_c_2568_n N_noxref_5_c_2569_n \
 N_noxref_5_c_2495_n N_noxref_5_c_2576_n N_noxref_5_c_2520_n \
 N_noxref_5_c_2524_n N_noxref_5_c_2526_n N_noxref_5_c_2530_n \
 N_noxref_5_c_2496_n N_noxref_5_c_2583_n N_noxref_5_c_2534_n \
 N_noxref_5_c_2497_n N_noxref_5_c_2498_n N_noxref_5_c_2670_p \
 N_noxref_5_c_2592_n N_noxref_5_M3_noxref_g N_noxref_5_M11_noxref_g \
 N_noxref_5_M60_noxref_g N_noxref_5_M61_noxref_g N_noxref_5_M76_noxref_g \
 N_noxref_5_M77_noxref_g N_noxref_5_c_2499_n N_noxref_5_c_2501_n \
 N_noxref_5_c_2502_n N_noxref_5_c_2503_n N_noxref_5_c_2504_n \
 N_noxref_5_c_2505_n N_noxref_5_c_2506_n N_noxref_5_c_2508_n \
 N_noxref_5_c_2597_n N_noxref_5_c_2549_n N_noxref_5_c_2509_n \
 N_noxref_5_c_2511_n N_noxref_5_c_2512_n N_noxref_5_c_2513_n \
 N_noxref_5_c_2514_n N_noxref_5_c_2515_n N_noxref_5_c_2516_n \
 N_noxref_5_c_2518_n N_noxref_5_c_2630_p N_noxref_5_c_2551_n \
 N_noxref_5_M2_noxref_d N_noxref_5_M54_noxref_d N_noxref_5_M56_noxref_d \
 N_noxref_5_M58_noxref_d )  PM_TMRDFFRNQNX1\%noxref_5
x_PM_TMRDFFRNQNX1\%noxref_6 ( N_noxref_6_c_2748_n N_noxref_6_c_2749_n \
 N_noxref_6_c_2787_n N_noxref_6_c_2891_n N_noxref_6_c_2788_n \
 N_noxref_6_c_2789_n N_noxref_6_c_2790_n N_noxref_6_c_2791_n \
 N_noxref_6_c_2975_p N_noxref_6_c_2792_n N_noxref_6_c_2750_n \
 N_noxref_6_c_2893_n N_noxref_6_c_2751_n N_noxref_6_c_2798_n \
 N_noxref_6_c_2802_n N_noxref_6_c_2804_n N_noxref_6_c_2808_n \
 N_noxref_6_c_2753_n N_noxref_6_c_3060_p N_noxref_6_c_2812_n \
 N_noxref_6_c_2813_n N_noxref_6_c_2817_n N_noxref_6_c_2819_n \
 N_noxref_6_c_2823_n N_noxref_6_c_2754_n N_noxref_6_c_3064_p \
 N_noxref_6_c_2827_n N_noxref_6_c_2755_n N_noxref_6_c_3016_p \
 N_noxref_6_c_2756_n N_noxref_6_c_3018_p N_noxref_6_c_3076_p \
 N_noxref_6_c_3098_p N_noxref_6_c_3121_p N_noxref_6_M0_noxref_g \
 N_noxref_6_M7_noxref_g N_noxref_6_M14_noxref_g N_noxref_6_M15_noxref_g \
 N_noxref_6_M54_noxref_g N_noxref_6_M55_noxref_g N_noxref_6_M68_noxref_g \
 N_noxref_6_M69_noxref_g N_noxref_6_M82_noxref_g N_noxref_6_M83_noxref_g \
 N_noxref_6_M84_noxref_g N_noxref_6_M85_noxref_g N_noxref_6_c_2758_n \
 N_noxref_6_c_2760_n N_noxref_6_c_2761_n N_noxref_6_c_2762_n \
 N_noxref_6_c_2763_n N_noxref_6_c_2764_n N_noxref_6_c_2765_n \
 N_noxref_6_c_2767_n N_noxref_6_c_2973_n N_noxref_6_c_2851_n \
 N_noxref_6_c_2902_n N_noxref_6_c_2905_n N_noxref_6_c_2907_n \
 N_noxref_6_c_2937_n N_noxref_6_c_2939_n N_noxref_6_c_2940_n \
 N_noxref_6_c_2910_n N_noxref_6_c_2911_n N_noxref_6_c_2768_n \
 N_noxref_6_c_2770_n N_noxref_6_c_2771_n N_noxref_6_c_2772_n \
 N_noxref_6_c_2773_n N_noxref_6_c_2774_n N_noxref_6_c_2775_n \
 N_noxref_6_c_2777_n N_noxref_6_c_3161_p N_noxref_6_c_3162_p \
 N_noxref_6_c_3163_p N_noxref_6_c_3019_p N_noxref_6_c_3164_p \
 N_noxref_6_c_3069_p N_noxref_6_c_3166_p N_noxref_6_c_3131_p \
 N_noxref_6_c_2912_n N_noxref_6_c_2946_n N_noxref_6_c_2914_n \
 N_noxref_6_c_2853_n N_noxref_6_c_3070_p N_noxref_6_c_3139_p \
 N_noxref_6_c_3021_p N_noxref_6_M10_noxref_d N_noxref_6_M13_noxref_d \
 N_noxref_6_M70_noxref_d N_noxref_6_M72_noxref_d N_noxref_6_M74_noxref_d \
 N_noxref_6_M76_noxref_d N_noxref_6_M78_noxref_d N_noxref_6_M80_noxref_d )  \
 PM_TMRDFFRNQNX1\%noxref_6
x_PM_TMRDFFRNQNX1\%noxref_7 ( N_noxref_7_c_3298_p N_noxref_7_c_3314_p \
 N_noxref_7_c_3290_p N_noxref_7_c_3303_p N_noxref_7_c_3233_n \
 N_noxref_7_c_3248_n N_noxref_7_c_3252_n N_noxref_7_c_3254_n \
 N_noxref_7_c_3258_n N_noxref_7_c_3234_n N_noxref_7_c_3417_p \
 N_noxref_7_c_3262_n N_noxref_7_c_3235_n N_noxref_7_c_3385_p \
 N_noxref_7_c_3426_p N_noxref_7_M18_noxref_g N_noxref_7_M22_noxref_g \
 N_noxref_7_M90_noxref_g N_noxref_7_M91_noxref_g N_noxref_7_M98_noxref_g \
 N_noxref_7_M99_noxref_g N_noxref_7_c_3327_p N_noxref_7_c_3328_p \
 N_noxref_7_c_3329_p N_noxref_7_c_3330_p N_noxref_7_c_3311_p \
 N_noxref_7_c_3332_p N_noxref_7_c_3312_p N_noxref_7_c_3236_n \
 N_noxref_7_c_3238_n N_noxref_7_c_3239_n N_noxref_7_c_3240_n \
 N_noxref_7_c_3241_n N_noxref_7_c_3242_n N_noxref_7_c_3243_n \
 N_noxref_7_c_3245_n N_noxref_7_c_3316_p N_noxref_7_c_3317_p \
 N_noxref_7_c_3310_p N_noxref_7_c_3274_n N_noxref_7_M21_noxref_d \
 N_noxref_7_M92_noxref_d N_noxref_7_M94_noxref_d N_noxref_7_M96_noxref_d )  \
 PM_TMRDFFRNQNX1\%noxref_7
x_PM_TMRDFFRNQNX1\%noxref_8 ( N_noxref_8_c_3535_p N_noxref_8_c_3527_n \
 N_noxref_8_c_3496_n N_noxref_8_c_3500_n N_noxref_8_c_3502_n \
 N_noxref_8_c_3480_n N_noxref_8_c_3606_p N_noxref_8_c_3481_n \
 N_noxref_8_c_3482_n N_noxref_8_c_3561_p N_noxref_8_M24_noxref_g \
 N_noxref_8_M102_noxref_g N_noxref_8_M103_noxref_g N_noxref_8_c_3483_n \
 N_noxref_8_c_3485_n N_noxref_8_c_3486_n N_noxref_8_c_3487_n \
 N_noxref_8_c_3488_n N_noxref_8_c_3489_n N_noxref_8_c_3490_n \
 N_noxref_8_c_3492_n N_noxref_8_c_3552_p N_noxref_8_c_3514_n \
 N_noxref_8_M23_noxref_d N_noxref_8_M98_noxref_d N_noxref_8_M100_noxref_d )  \
 PM_TMRDFFRNQNX1\%noxref_8
x_PM_TMRDFFRNQNX1\%noxref_9 ( N_noxref_9_c_3705_n N_noxref_9_c_3706_n \
 N_noxref_9_c_3708_n N_noxref_9_c_3713_n N_noxref_9_c_3657_n \
 N_noxref_9_c_3661_n N_noxref_9_c_3663_n N_noxref_9_c_3667_n \
 N_noxref_9_c_3633_n N_noxref_9_c_3824_p N_noxref_9_c_3671_n \
 N_noxref_9_c_3634_n N_noxref_9_c_3635_n N_noxref_9_c_3808_p \
 N_noxref_9_c_3728_n N_noxref_9_M19_noxref_g N_noxref_9_M27_noxref_g \
 N_noxref_9_M92_noxref_g N_noxref_9_M93_noxref_g N_noxref_9_M108_noxref_g \
 N_noxref_9_M109_noxref_g N_noxref_9_c_3636_n N_noxref_9_c_3638_n \
 N_noxref_9_c_3639_n N_noxref_9_c_3640_n N_noxref_9_c_3641_n \
 N_noxref_9_c_3642_n N_noxref_9_c_3643_n N_noxref_9_c_3645_n \
 N_noxref_9_c_3733_n N_noxref_9_c_3686_n N_noxref_9_c_3646_n \
 N_noxref_9_c_3648_n N_noxref_9_c_3649_n N_noxref_9_c_3650_n \
 N_noxref_9_c_3651_n N_noxref_9_c_3652_n N_noxref_9_c_3653_n \
 N_noxref_9_c_3655_n N_noxref_9_c_3751_p N_noxref_9_c_3688_n \
 N_noxref_9_M18_noxref_d N_noxref_9_M86_noxref_d N_noxref_9_M88_noxref_d \
 N_noxref_9_M90_noxref_d )  PM_TMRDFFRNQNX1\%noxref_9
x_PM_TMRDFFRNQNX1\%noxref_10 ( N_noxref_10_c_3951_p N_noxref_10_c_3946_n \
 N_noxref_10_c_3908_n N_noxref_10_c_3912_n N_noxref_10_c_3914_n \
 N_noxref_10_c_3918_n N_noxref_10_c_3895_n N_noxref_10_c_3989_p \
 N_noxref_10_c_3922_n N_noxref_10_c_3896_n N_noxref_10_c_3999_p \
 N_noxref_10_c_4009_p N_noxref_10_M30_noxref_g N_noxref_10_M114_noxref_g \
 N_noxref_10_M115_noxref_g N_noxref_10_c_3897_n N_noxref_10_c_3899_n \
 N_noxref_10_c_3900_n N_noxref_10_c_3901_n N_noxref_10_c_3902_n \
 N_noxref_10_c_3903_n N_noxref_10_c_3904_n N_noxref_10_c_3906_n \
 N_noxref_10_c_3930_n N_noxref_10_M29_noxref_d N_noxref_10_M108_noxref_d \
 N_noxref_10_M110_noxref_d N_noxref_10_M112_noxref_d )  \
 PM_TMRDFFRNQNX1\%noxref_10
x_PM_TMRDFFRNQNX1\%noxref_11 ( N_noxref_11_c_4075_n N_noxref_11_c_4077_n \
 N_noxref_11_c_4078_n N_noxref_11_c_4144_n N_noxref_11_c_4079_n \
 N_noxref_11_c_4081_n N_noxref_11_c_4058_n N_noxref_11_c_4146_n \
 N_noxref_11_c_4059_n N_noxref_11_c_4087_n N_noxref_11_c_4091_n \
 N_noxref_11_c_4093_n N_noxref_11_c_4097_n N_noxref_11_c_4061_n \
 N_noxref_11_c_4321_p N_noxref_11_c_4101_n N_noxref_11_c_4228_n \
 N_noxref_11_c_4062_n N_noxref_11_c_4280_p N_noxref_11_c_4331_p \
 N_noxref_11_M16_noxref_g N_noxref_11_M23_noxref_g N_noxref_11_M31_noxref_g \
 N_noxref_11_M86_noxref_g N_noxref_11_M87_noxref_g N_noxref_11_M100_noxref_g \
 N_noxref_11_M101_noxref_g N_noxref_11_M116_noxref_g N_noxref_11_M117_noxref_g \
 N_noxref_11_c_4064_n N_noxref_11_c_4066_n N_noxref_11_c_4067_n \
 N_noxref_11_c_4068_n N_noxref_11_c_4069_n N_noxref_11_c_4070_n \
 N_noxref_11_c_4071_n N_noxref_11_c_4073_n N_noxref_11_c_4222_n \
 N_noxref_11_c_4118_n N_noxref_11_c_4155_n N_noxref_11_c_4158_n \
 N_noxref_11_c_4160_n N_noxref_11_c_4190_n N_noxref_11_c_4192_n \
 N_noxref_11_c_4193_n N_noxref_11_c_4163_n N_noxref_11_c_4164_n \
 N_noxref_11_c_4237_n N_noxref_11_c_4240_n N_noxref_11_c_4242_n \
 N_noxref_11_c_4281_p N_noxref_11_c_4377_p N_noxref_11_c_4325_p \
 N_noxref_11_c_4245_n N_noxref_11_c_4246_n N_noxref_11_c_4165_n \
 N_noxref_11_c_4199_n N_noxref_11_c_4167_n N_noxref_11_c_4247_n \
 N_noxref_11_c_4371_p N_noxref_11_c_4249_n N_noxref_11_M26_noxref_d \
 N_noxref_11_M102_noxref_d N_noxref_11_M104_noxref_d N_noxref_11_M106_noxref_d \
 )  PM_TMRDFFRNQNX1\%noxref_11
x_PM_TMRDFFRNQNX1\%D ( N_D_c_4434_n N_D_c_4441_n N_D_c_4442_n N_D_c_4538_n D D \
 N_D_c_4448_n N_D_c_4449_n N_D_c_4450_n N_D_M4_noxref_g N_D_M20_noxref_g \
 N_D_M36_noxref_g N_D_M62_noxref_g N_D_M63_noxref_g N_D_M94_noxref_g \
 N_D_M95_noxref_g N_D_M126_noxref_g N_D_M127_noxref_g N_D_c_4502_n \
 N_D_c_4505_n N_D_c_4749_p N_D_c_4756_p N_D_c_4507_n N_D_c_4508_n N_D_c_4509_n \
 N_D_c_4510_n N_D_c_4482_n N_D_c_4567_n N_D_c_4570_n N_D_c_4770_p N_D_c_4777_p \
 N_D_c_4572_n N_D_c_4573_n N_D_c_4574_n N_D_c_4575_n N_D_c_4546_n N_D_c_4615_p \
 N_D_c_4617_p N_D_c_4790_p N_D_c_4797_p N_D_c_4621_p N_D_c_4623_p N_D_c_4624_p \
 N_D_c_4610_p N_D_c_4598_p N_D_c_4483_n N_D_c_4547_n N_D_c_4599_p )  \
 PM_TMRDFFRNQNX1\%D
x_PM_TMRDFFRNQNX1\%CLK ( N_CLK_c_4808_n N_CLK_c_4825_n N_CLK_c_4826_n \
 N_CLK_c_4843_n N_CLK_c_4844_n N_CLK_c_4861_n N_CLK_c_4862_n N_CLK_c_4879_n \
 N_CLK_c_4880_n N_CLK_c_4897_n CLK CLK CLK CLK CLK CLK CLK CLK CLK CLK CLK CLK \
 CLK CLK CLK CLK N_CLK_c_4802_n N_CLK_c_4803_n N_CLK_c_4804_n N_CLK_c_4805_n \
 N_CLK_c_4806_n N_CLK_c_4807_n N_CLK_M1_noxref_g N_CLK_M9_noxref_g \
 N_CLK_M17_noxref_g N_CLK_M25_noxref_g N_CLK_M33_noxref_g N_CLK_M41_noxref_g \
 N_CLK_M56_noxref_g N_CLK_M57_noxref_g N_CLK_M72_noxref_g N_CLK_M73_noxref_g \
 N_CLK_M88_noxref_g N_CLK_M89_noxref_g N_CLK_M104_noxref_g N_CLK_M105_noxref_g \
 N_CLK_M120_noxref_g N_CLK_M121_noxref_g N_CLK_M136_noxref_g \
 N_CLK_M137_noxref_g N_CLK_c_5060_n N_CLK_c_5063_n N_CLK_c_5475_p \
 N_CLK_c_5482_p N_CLK_c_4952_n N_CLK_c_4953_n N_CLK_c_4954_n N_CLK_c_4955_n \
 N_CLK_c_4958_n N_CLK_c_4976_n N_CLK_c_4979_n N_CLK_c_5495_p N_CLK_c_5502_p \
 N_CLK_c_4981_n N_CLK_c_4982_n N_CLK_c_4983_n N_CLK_c_4984_n N_CLK_c_5070_n \
 N_CLK_c_5205_n N_CLK_c_5208_n N_CLK_c_5515_p N_CLK_c_5522_p N_CLK_c_5094_n \
 N_CLK_c_5095_n N_CLK_c_5096_n N_CLK_c_5097_n N_CLK_c_5100_n N_CLK_c_5118_n \
 N_CLK_c_5121_n N_CLK_c_5535_p N_CLK_c_5542_p N_CLK_c_5123_n N_CLK_c_5124_n \
 N_CLK_c_5125_n N_CLK_c_5126_n N_CLK_c_5215_n N_CLK_c_5363_p N_CLK_c_5365_p \
 N_CLK_c_5555_p N_CLK_c_5562_p N_CLK_c_5369_p N_CLK_c_5371_p N_CLK_c_5372_p \
 N_CLK_c_5265_p N_CLK_c_5250_p N_CLK_c_5426_p N_CLK_c_5428_p N_CLK_c_5575_p \
 N_CLK_c_5582_p N_CLK_c_5306_p N_CLK_c_5307_p N_CLK_c_5308_p N_CLK_c_5267_p \
 N_CLK_c_5332_p N_CLK_c_4959_n N_CLK_c_4986_n N_CLK_c_5101_n N_CLK_c_5128_n \
 N_CLK_c_5242_p N_CLK_c_5288_p )  PM_TMRDFFRNQNX1\%CLK
x_PM_TMRDFFRNQNX1\%noxref_14 ( N_noxref_14_c_5684_n N_noxref_14_c_5685_n \
 N_noxref_14_c_5659_n N_noxref_14_c_5660_n N_noxref_14_c_5611_n \
 N_noxref_14_c_5615_n N_noxref_14_c_5617_n N_noxref_14_c_5621_n \
 N_noxref_14_c_5587_n N_noxref_14_c_5704_p N_noxref_14_c_5625_n \
 N_noxref_14_c_5588_n N_noxref_14_c_5589_n N_noxref_14_c_5699_n \
 N_noxref_14_c_5779_p N_noxref_14_M35_noxref_g N_noxref_14_M43_noxref_g \
 N_noxref_14_M124_noxref_g N_noxref_14_M125_noxref_g N_noxref_14_M140_noxref_g \
 N_noxref_14_M141_noxref_g N_noxref_14_c_5590_n N_noxref_14_c_5592_n \
 N_noxref_14_c_5593_n N_noxref_14_c_5594_n N_noxref_14_c_5595_n \
 N_noxref_14_c_5596_n N_noxref_14_c_5597_n N_noxref_14_c_5599_n \
 N_noxref_14_c_5680_n N_noxref_14_c_5640_n N_noxref_14_c_5600_n \
 N_noxref_14_c_5602_n N_noxref_14_c_5603_n N_noxref_14_c_5604_n \
 N_noxref_14_c_5605_n N_noxref_14_c_5606_n N_noxref_14_c_5607_n \
 N_noxref_14_c_5609_n N_noxref_14_c_5717_p N_noxref_14_c_5642_n \
 N_noxref_14_M34_noxref_d N_noxref_14_M118_noxref_d N_noxref_14_M120_noxref_d \
 N_noxref_14_M122_noxref_d )  PM_TMRDFFRNQNX1\%noxref_14
x_PM_TMRDFFRNQNX1\%RN ( N_RN_c_5846_n N_RN_c_5854_n N_RN_c_5856_n \
 N_RN_c_5860_n N_RN_c_5861_n N_RN_c_5872_n N_RN_c_5873_n N_RN_c_5881_n \
 N_RN_c_5882_n N_RN_c_5886_n N_RN_c_5887_n N_RN_c_5898_n N_RN_c_5899_n \
 N_RN_c_5907_n N_RN_c_5908_n N_RN_c_5912_n RN RN RN RN RN RN RN RN RN RN \
 N_RN_c_5913_n N_RN_c_5914_n N_RN_c_5915_n N_RN_c_5916_n N_RN_c_5917_n \
 N_RN_c_5918_n N_RN_c_5919_n N_RN_c_5920_n N_RN_c_5921_n N_RN_M5_noxref_g \
 N_RN_M10_noxref_g N_RN_M12_noxref_g N_RN_M21_noxref_g N_RN_M26_noxref_g \
 N_RN_M28_noxref_g N_RN_M37_noxref_g N_RN_M42_noxref_g N_RN_M44_noxref_g \
 N_RN_M64_noxref_g N_RN_M65_noxref_g N_RN_M74_noxref_g N_RN_M75_noxref_g \
 N_RN_M78_noxref_g N_RN_M79_noxref_g N_RN_M96_noxref_g N_RN_M97_noxref_g \
 N_RN_M106_noxref_g N_RN_M107_noxref_g N_RN_M110_noxref_g N_RN_M111_noxref_g \
 N_RN_M128_noxref_g N_RN_M129_noxref_g N_RN_M138_noxref_g N_RN_M139_noxref_g \
 N_RN_M142_noxref_g N_RN_M143_noxref_g N_RN_c_5988_n N_RN_c_5989_n \
 N_RN_c_5990_n N_RN_c_5991_n N_RN_c_5992_n N_RN_c_5994_n N_RN_c_5995_n \
 N_RN_c_6075_n N_RN_c_6076_n N_RN_c_6077_n N_RN_c_6078_n N_RN_c_6079_n \
 N_RN_c_6081_n N_RN_c_6082_n N_RN_c_6029_n N_RN_c_6032_n N_RN_c_6631_p \
 N_RN_c_6639_p N_RN_c_6034_n N_RN_c_6035_n N_RN_c_6036_n N_RN_c_6037_n \
 N_RN_c_6084_n N_RN_c_6109_n N_RN_c_6110_n N_RN_c_6111_n N_RN_c_6112_n \
 N_RN_c_6113_n N_RN_c_6115_n N_RN_c_6116_n N_RN_c_6196_n N_RN_c_6197_n \
 N_RN_c_6198_n N_RN_c_6199_n N_RN_c_6200_n N_RN_c_6202_n N_RN_c_6203_n \
 N_RN_c_6149_n N_RN_c_6152_n N_RN_c_6712_p N_RN_c_6720_p N_RN_c_6154_n \
 N_RN_c_6155_n N_RN_c_6156_n N_RN_c_6157_n N_RN_c_6172_n N_RN_c_6268_n \
 N_RN_c_6269_n N_RN_c_6270_n N_RN_c_6513_p N_RN_c_6474_p N_RN_c_6515_p \
 N_RN_c_6475_p N_RN_c_6341_n N_RN_c_6342_n N_RN_c_6343_n N_RN_c_6436_p \
 N_RN_c_6412_p N_RN_c_6438_p N_RN_c_6413_p N_RN_c_6387_n N_RN_c_6390_n \
 N_RN_c_6789_p N_RN_c_6796_p N_RN_c_6392_n N_RN_c_6393_n N_RN_c_6394_n \
 N_RN_c_6395_n N_RN_c_6404_p N_RN_c_5997_n N_RN_c_5998_n N_RN_c_6000_n \
 N_RN_c_6085_n N_RN_c_6086_n N_RN_c_6088_n N_RN_c_6039_n N_RN_c_6118_n \
 N_RN_c_6119_n N_RN_c_6121_n N_RN_c_6205_n N_RN_c_6206_n N_RN_c_6208_n \
 N_RN_c_6159_n N_RN_c_6283_n N_RN_c_6285_n N_RN_c_6286_n N_RN_c_6363_n \
 N_RN_c_6365_n N_RN_c_6366_n N_RN_c_6397_n )  PM_TMRDFFRNQNX1\%RN
x_PM_TMRDFFRNQNX1\%noxref_16 ( N_noxref_16_c_6831_n N_noxref_16_c_6833_n \
 N_noxref_16_c_6834_n N_noxref_16_c_6962_n N_noxref_16_c_6836_n \
 N_noxref_16_c_6842_n N_noxref_16_c_6845_n N_noxref_16_c_6851_n \
 N_noxref_16_c_6854_n N_noxref_16_c_6855_n N_noxref_16_c_6801_n \
 N_noxref_16_c_6968_n N_noxref_16_c_6802_n N_noxref_16_c_6863_n \
 N_noxref_16_c_6867_n N_noxref_16_c_6869_n N_noxref_16_c_6873_n \
 N_noxref_16_c_6804_n N_noxref_16_c_7039_n N_noxref_16_c_6877_n \
 N_noxref_16_c_6878_n N_noxref_16_c_6882_n N_noxref_16_c_6884_n \
 N_noxref_16_c_6888_n N_noxref_16_c_6805_n N_noxref_16_c_7240_p \
 N_noxref_16_c_6892_n N_noxref_16_c_6806_n N_noxref_16_c_7181_p \
 N_noxref_16_c_6807_n N_noxref_16_c_6977_n N_noxref_16_c_7052_n \
 N_noxref_16_c_7054_n N_noxref_16_c_7179_p N_noxref_16_M32_noxref_g \
 N_noxref_16_M39_noxref_g N_noxref_16_M46_noxref_g N_noxref_16_M47_noxref_g \
 N_noxref_16_M118_noxref_g N_noxref_16_M119_noxref_g N_noxref_16_M132_noxref_g \
 N_noxref_16_M133_noxref_g N_noxref_16_M146_noxref_g N_noxref_16_M147_noxref_g \
 N_noxref_16_M148_noxref_g N_noxref_16_M149_noxref_g N_noxref_16_c_6809_n \
 N_noxref_16_c_6811_n N_noxref_16_c_6812_n N_noxref_16_c_6813_n \
 N_noxref_16_c_6814_n N_noxref_16_c_6815_n N_noxref_16_c_6816_n \
 N_noxref_16_c_6818_n N_noxref_16_c_6992_n N_noxref_16_c_6916_n \
 N_noxref_16_c_7136_p N_noxref_16_c_7138_p N_noxref_16_c_7139_p \
 N_noxref_16_c_6997_n N_noxref_16_c_7154_p N_noxref_16_c_7056_n \
 N_noxref_16_c_7144_p N_noxref_16_c_7116_p N_noxref_16_c_6819_n \
 N_noxref_16_c_6821_n N_noxref_16_c_6822_n N_noxref_16_c_6823_n \
 N_noxref_16_c_6824_n N_noxref_16_c_6825_n N_noxref_16_c_6826_n \
 N_noxref_16_c_6828_n N_noxref_16_c_7223_p N_noxref_16_c_7224_p \
 N_noxref_16_c_7225_p N_noxref_16_c_7169_p N_noxref_16_c_7226_p \
 N_noxref_16_c_7191_p N_noxref_16_c_7228_p N_noxref_16_c_7192_p \
 N_noxref_16_c_7057_n N_noxref_16_c_7124_p N_noxref_16_c_6998_n \
 N_noxref_16_c_6918_n N_noxref_16_c_7199_p N_noxref_16_c_7200_p \
 N_noxref_16_c_7170_p N_noxref_16_M42_noxref_d N_noxref_16_M45_noxref_d \
 N_noxref_16_M134_noxref_d N_noxref_16_M136_noxref_d N_noxref_16_M138_noxref_d \
 N_noxref_16_M140_noxref_d N_noxref_16_M142_noxref_d N_noxref_16_M144_noxref_d \
 )  PM_TMRDFFRNQNX1\%noxref_16
x_PM_TMRDFFRNQNX1\%noxref_17 ( N_noxref_17_c_7491_n N_noxref_17_c_7495_n \
 N_noxref_17_c_7362_n N_noxref_17_c_7529_n N_noxref_17_c_7559_n \
 N_noxref_17_c_7561_n N_noxref_17_c_7648_n N_noxref_17_c_7649_n \
 N_noxref_17_c_7650_n N_noxref_17_c_7651_n N_noxref_17_c_7652_n \
 N_noxref_17_c_7653_n N_noxref_17_c_7583_n N_noxref_17_c_7584_n \
 N_noxref_17_c_7363_n N_noxref_17_c_7368_n N_noxref_17_c_7301_n \
 N_noxref_17_c_7373_n N_noxref_17_c_7377_n N_noxref_17_c_7379_n \
 N_noxref_17_c_7302_n N_noxref_17_c_7713_n N_noxref_17_c_7303_n \
 N_noxref_17_c_7304_n N_noxref_17_c_7385_n N_noxref_17_c_7389_n \
 N_noxref_17_c_7391_n N_noxref_17_c_7395_n N_noxref_17_c_7305_n \
 N_noxref_17_c_7721_n N_noxref_17_c_7399_n N_noxref_17_c_7306_n \
 N_noxref_17_c_7403_n N_noxref_17_c_7407_n N_noxref_17_c_7409_n \
 N_noxref_17_c_7307_n N_noxref_17_c_7730_n N_noxref_17_c_7308_n \
 N_noxref_17_c_7309_n N_noxref_17_c_7310_n N_noxref_17_c_7313_n \
 N_noxref_17_c_7544_n N_noxref_17_c_7570_n N_noxref_17_c_7734_n \
 N_noxref_17_c_7824_n N_noxref_17_M29_noxref_g N_noxref_17_M34_noxref_g \
 N_noxref_17_M38_noxref_g N_noxref_17_M40_noxref_g N_noxref_17_M48_noxref_g \
 N_noxref_17_M50_noxref_g N_noxref_17_M112_noxref_g N_noxref_17_M113_noxref_g \
 N_noxref_17_M122_noxref_g N_noxref_17_M123_noxref_g N_noxref_17_M130_noxref_g \
 N_noxref_17_M131_noxref_g N_noxref_17_M134_noxref_g N_noxref_17_M135_noxref_g \
 N_noxref_17_M150_noxref_g N_noxref_17_M151_noxref_g N_noxref_17_M154_noxref_g \
 N_noxref_17_M155_noxref_g N_noxref_17_c_7510_n N_noxref_17_c_7511_n \
 N_noxref_17_c_7512_n N_noxref_17_c_7513_n N_noxref_17_c_7514_n \
 N_noxref_17_c_7516_n N_noxref_17_c_7517_n N_noxref_17_c_7614_n \
 N_noxref_17_c_7615_n N_noxref_17_c_7616_n N_noxref_17_c_7677_n \
 N_noxref_17_c_7678_n N_noxref_17_c_7680_n N_noxref_17_c_7681_n \
 N_noxref_17_c_7315_n N_noxref_17_c_7317_n N_noxref_17_c_7318_n \
 N_noxref_17_c_7319_n N_noxref_17_c_7320_n N_noxref_17_c_7321_n \
 N_noxref_17_c_7322_n N_noxref_17_c_7324_n N_noxref_17_c_7325_n \
 N_noxref_17_c_7327_n N_noxref_17_c_7328_n N_noxref_17_c_7329_n \
 N_noxref_17_c_7330_n N_noxref_17_c_7331_n N_noxref_17_c_7332_n \
 N_noxref_17_c_7334_n N_noxref_17_c_7627_n N_noxref_17_c_7447_n \
 N_noxref_17_c_7335_n N_noxref_17_c_7337_n N_noxref_17_c_7338_n \
 N_noxref_17_c_7339_n N_noxref_17_c_7340_n N_noxref_17_c_7341_n \
 N_noxref_17_c_7875_p N_noxref_17_c_7449_n N_noxref_17_c_7342_n \
 N_noxref_17_c_7344_n N_noxref_17_c_7345_n N_noxref_17_c_7347_n \
 N_noxref_17_c_7958_p N_noxref_17_c_7348_n N_noxref_17_c_7349_n \
 N_noxref_17_c_7350_n N_noxref_17_c_7351_n N_noxref_17_c_7353_n \
 N_noxref_17_c_7519_n N_noxref_17_c_7520_n N_noxref_17_c_7522_n \
 N_noxref_17_c_7633_n N_noxref_17_c_7635_n N_noxref_17_c_7636_n \
 N_noxref_17_c_7451_n N_noxref_17_c_7354_n N_noxref_17_c_7452_n \
 N_noxref_17_M31_noxref_d N_noxref_17_M37_noxref_d N_noxref_17_M39_noxref_d \
 N_noxref_17_M114_noxref_d N_noxref_17_M116_noxref_d N_noxref_17_M124_noxref_d \
 N_noxref_17_M126_noxref_d N_noxref_17_M128_noxref_d N_noxref_17_M130_noxref_d \
 N_noxref_17_M132_noxref_d )  PM_TMRDFFRNQNX1\%noxref_17
x_PM_TMRDFFRNQNX1\%noxref_18 ( N_noxref_18_c_8076_n N_noxref_18_c_8127_n \
 N_noxref_18_c_8077_n N_noxref_18_c_8079_n N_noxref_18_c_8064_n \
 N_noxref_18_c_8085_n N_noxref_18_c_8065_n N_noxref_18_c_8087_n \
 N_noxref_18_c_8091_n N_noxref_18_c_8093_n N_noxref_18_c_8066_n \
 N_noxref_18_c_8286_p N_noxref_18_c_8067_n N_noxref_18_c_8099_n \
 N_noxref_18_c_8068_n N_noxref_18_c_8070_n N_noxref_18_c_8188_n \
 N_noxref_18_c_8309_p N_noxref_18_M45_noxref_g N_noxref_18_M49_noxref_g \
 N_noxref_18_M53_noxref_g N_noxref_18_M144_noxref_g N_noxref_18_M145_noxref_g \
 N_noxref_18_M152_noxref_g N_noxref_18_M153_noxref_g N_noxref_18_M160_noxref_g \
 N_noxref_18_M161_noxref_g N_noxref_18_c_8137_n N_noxref_18_c_8138_n \
 N_noxref_18_c_8139_n N_noxref_18_c_8196_n N_noxref_18_c_8197_n \
 N_noxref_18_c_8199_n N_noxref_18_c_8200_n N_noxref_18_c_8250_n \
 N_noxref_18_c_8253_n N_noxref_18_c_8255_n N_noxref_18_c_8114_n \
 N_noxref_18_c_8340_p N_noxref_18_c_8341_p N_noxref_18_c_8259_n \
 N_noxref_18_c_8260_n N_noxref_18_c_8305_p N_noxref_18_c_8316_p \
 N_noxref_18_c_8307_p N_noxref_18_c_8357_p N_noxref_18_c_8348_p \
 N_noxref_18_c_8318_p N_noxref_18_c_8315_p N_noxref_18_c_8319_p \
 N_noxref_18_c_8140_n N_noxref_18_c_8143_n N_noxref_18_c_8144_n \
 N_noxref_18_c_8072_n N_noxref_18_c_8412_p N_noxref_18_c_8115_n \
 N_noxref_18_c_8293_p N_noxref_18_c_8359_p N_noxref_18_c_8299_p \
 N_noxref_18_M47_noxref_d N_noxref_18_M146_noxref_d N_noxref_18_M148_noxref_d ) \
 PM_TMRDFFRNQNX1\%noxref_18
x_PM_TMRDFFRNQNX1\%noxref_19 ( N_noxref_19_c_8424_n N_noxref_19_c_8430_n \
 N_noxref_19_c_8435_n N_noxref_19_c_8439_n N_noxref_19_c_8441_n \
 N_noxref_19_c_8444_n N_noxref_19_c_8470_n N_noxref_19_c_8446_n \
 N_noxref_19_c_8489_p N_noxref_19_M150_noxref_d N_noxref_19_M152_noxref_d \
 N_noxref_19_M154_noxref_s N_noxref_19_M155_noxref_d N_noxref_19_M157_noxref_d \
 )  PM_TMRDFFRNQNX1\%noxref_19
x_PM_TMRDFFRNQNX1\%noxref_20 ( N_noxref_20_c_8515_n N_noxref_20_c_8606_n \
 N_noxref_20_c_8516_n N_noxref_20_c_8608_n N_noxref_20_c_8536_n \
 N_noxref_20_c_8537_n N_noxref_20_c_8538_n N_noxref_20_c_8560_n \
 N_noxref_20_c_8564_n N_noxref_20_c_8566_n N_noxref_20_c_8539_n \
 N_noxref_20_c_8761_n N_noxref_20_c_8540_n N_noxref_20_c_8541_n \
 N_noxref_20_c_8543_n N_noxref_20_c_8633_n N_noxref_20_M13_noxref_g \
 N_noxref_20_M51_noxref_g N_noxref_20_M52_noxref_g N_noxref_20_M80_noxref_g \
 N_noxref_20_M81_noxref_g N_noxref_20_M156_noxref_g N_noxref_20_M157_noxref_g \
 N_noxref_20_M158_noxref_g N_noxref_20_M159_noxref_g N_noxref_20_c_8638_n \
 N_noxref_20_c_8639_n N_noxref_20_c_8640_n N_noxref_20_c_8641_n \
 N_noxref_20_c_8642_n N_noxref_20_c_8644_n N_noxref_20_c_8645_n \
 N_noxref_20_c_8825_n N_noxref_20_c_8828_n N_noxref_20_c_8901_p \
 N_noxref_20_c_8830_n N_noxref_20_c_8929_p N_noxref_20_c_8930_p \
 N_noxref_20_c_8584_n N_noxref_20_c_8834_n N_noxref_20_c_8835_n \
 N_noxref_20_c_8836_n N_noxref_20_c_8544_n N_noxref_20_c_8545_n \
 N_noxref_20_c_8547_n N_noxref_20_c_8866_n N_noxref_20_c_8548_n \
 N_noxref_20_c_8549_n N_noxref_20_c_8550_n N_noxref_20_c_8868_n \
 N_noxref_20_c_8585_n N_noxref_20_c_8551_n N_noxref_20_c_8553_n \
 N_noxref_20_c_8647_n N_noxref_20_c_8648_n N_noxref_20_c_8650_n \
 N_noxref_20_c_8554_n N_noxref_20_M15_noxref_d N_noxref_20_M82_noxref_d \
 N_noxref_20_M84_noxref_d )  PM_TMRDFFRNQNX1\%noxref_20
x_PM_TMRDFFRNQNX1\%noxref_21 ( N_noxref_21_c_9008_n N_noxref_21_c_9012_n \
 N_noxref_21_c_9023_n N_noxref_21_c_9014_n N_noxref_21_c_9015_n \
 N_noxref_21_c_9016_n N_noxref_21_c_9035_n N_noxref_21_c_9018_n \
 N_noxref_21_c_9036_n N_noxref_21_M154_noxref_d N_noxref_21_M156_noxref_d \
 N_noxref_21_M158_noxref_s N_noxref_21_M159_noxref_d N_noxref_21_M161_noxref_d \
 )  PM_TMRDFFRNQNX1\%noxref_21
x_PM_TMRDFFRNQNX1\%QN ( N_QN_c_9097_n N_QN_c_9104_n N_QN_c_9105_n \
 N_QN_c_9111_n QN QN QN QN QN QN QN QN N_QN_c_9164_n N_QN_c_9126_n \
 N_QN_c_9127_n N_QN_c_9113_n N_QN_c_9171_n N_QN_c_9172_n N_QN_M49_noxref_d \
 N_QN_M51_noxref_d N_QN_M53_noxref_d N_QN_M158_noxref_d N_QN_M160_noxref_d )  \
 PM_TMRDFFRNQNX1\%QN
x_PM_TMRDFFRNQNX1\%noxref_23 ( N_noxref_23_c_9282_n N_noxref_23_c_9266_n \
 N_noxref_23_c_9270_n N_noxref_23_c_9273_n N_noxref_23_c_9290_n \
 N_noxref_23_M0_noxref_s )  PM_TMRDFFRNQNX1\%noxref_23
x_PM_TMRDFFRNQNX1\%noxref_24 ( N_noxref_24_c_9312_n N_noxref_24_c_9314_n \
 N_noxref_24_c_9317_n N_noxref_24_c_9319_n N_noxref_24_c_9330_n \
 N_noxref_24_M1_noxref_d N_noxref_24_M2_noxref_s )  PM_TMRDFFRNQNX1\%noxref_24