// File: TMRDFFSNQX1.spi.pex
// Created: Tue Oct 15 15:52:45 2024
// Program "Calibre xRC"
// Version "v2023.2_27.15"
// Nominal Temperature: 30C
// Circuit Temperature: 30C
// 
simulator lang=spectre
subckt PM_TMRDFFSNQX1\%GND ( 1 143 147 150 155 163 169 179 185 195 201 207 215 \
 223 231 241 249 257 263 273 279 289 295 301 309 317 325 335 343 351 357 367 \
 373 383 389 395 403 411 419 429 437 445 451 457 465 476 481 485 498 501 504 \
 507 509 511 513 516 519 522 524 526 528 531 534 537 539 541 543 546 548 555 \
 562 563 564 565 566 567 568 569 570 571 572 573 574 575 576 577 578 579 580 \
 581 582 583 )
c1011 ( 583 0 ) capacitor c=0.0604367f //x=83.745 //y=0.37
c1012 ( 582 0 ) capacitor c=0.0215012f //x=80.91 //y=0.865
c1013 ( 581 0 ) capacitor c=0.0215012f //x=77.58 //y=0.865
c1014 ( 580 0 ) capacitor c=0.0207524f //x=74.25 //y=0.865
c1015 ( 579 0 ) capacitor c=0.0226075f //x=69.335 //y=0.875
c1016 ( 578 0 ) capacitor c=0.0207407f //x=66.11 //y=0.865
c1017 ( 577 0 ) capacitor c=0.0207407f //x=62.78 //y=0.865
c1018 ( 576 0 ) capacitor c=0.0225954f //x=57.865 //y=0.875
c1019 ( 575 0 ) capacitor c=0.0226075f //x=53.055 //y=0.875
c1020 ( 574 0 ) capacitor c=0.0207407f //x=49.83 //y=0.865
c1021 ( 573 0 ) capacitor c=0.0226075f //x=44.915 //y=0.875
c1022 ( 572 0 ) capacitor c=0.0207407f //x=41.69 //y=0.865
c1023 ( 571 0 ) capacitor c=0.0207407f //x=38.36 //y=0.865
c1024 ( 570 0 ) capacitor c=0.0225954f //x=33.445 //y=0.875
c1025 ( 569 0 ) capacitor c=0.0226075f //x=28.635 //y=0.875
c1026 ( 568 0 ) capacitor c=0.0207407f //x=25.41 //y=0.865
c1027 ( 567 0 ) capacitor c=0.0226075f //x=20.495 //y=0.875
c1028 ( 566 0 ) capacitor c=0.0207407f //x=17.27 //y=0.865
c1029 ( 565 0 ) capacitor c=0.0207407f //x=13.94 //y=0.865
c1030 ( 564 0 ) capacitor c=0.0226205f //x=9.025 //y=0.875
c1031 ( 563 0 ) capacitor c=0.0226323f //x=4.215 //y=0.875
c1032 ( 562 0 ) capacitor c=0.0207863f //x=0.99 //y=0.865
c1033 ( 555 0 ) capacitor c=0.234368f //x=84.85 //y=0
c1034 ( 548 0 ) capacitor c=0.101943f //x=83.25 //y=0
c1035 ( 547 0 ) capacitor c=0.00440095f //x=81.1 //y=0
c1036 ( 546 0 ) capacitor c=0.101477f //x=79.92 //y=0
c1037 ( 545 0 ) capacitor c=0.00440095f //x=77.7 //y=0
c1038 ( 543 0 ) capacitor c=0.116995f //x=76.59 //y=0
c1039 ( 542 0 ) capacitor c=0.00440095f //x=74.44 //y=0
c1040 ( 541 0 ) capacitor c=0.106826f //x=73.26 //y=0
c1041 ( 540 0 ) capacitor c=0.00440144f //x=69.525 //y=0
c1042 ( 539 0 ) capacitor c=0.104091f //x=68.45 //y=0
c1043 ( 538 0 ) capacitor c=0.00440095f //x=66.3 //y=0
c1044 ( 537 0 ) capacitor c=0.105123f //x=65.12 //y=0
c1045 ( 536 0 ) capacitor c=0.00440095f //x=62.9 //y=0
c1046 ( 534 0 ) capacitor c=0.108248f //x=61.79 //y=0
c1047 ( 533 0 ) capacitor c=0.00440144f //x=58.09 //y=0
c1048 ( 531 0 ) capacitor c=0.107229f //x=56.98 //y=0
c1049 ( 530 0 ) capacitor c=0.00440144f //x=53.28 //y=0
c1050 ( 528 0 ) capacitor c=0.104113f //x=52.17 //y=0
c1051 ( 527 0 ) capacitor c=0.00440095f //x=50.02 //y=0
c1052 ( 526 0 ) capacitor c=0.108351f //x=48.84 //y=0
c1053 ( 525 0 ) capacitor c=0.00440144f //x=45.105 //y=0
c1054 ( 524 0 ) capacitor c=0.10408f //x=44.03 //y=0
c1055 ( 523 0 ) capacitor c=0.00440095f //x=41.88 //y=0
c1056 ( 522 0 ) capacitor c=0.104882f //x=40.7 //y=0
c1057 ( 521 0 ) capacitor c=0.00440095f //x=38.48 //y=0
c1058 ( 519 0 ) capacitor c=0.108248f //x=37.37 //y=0
c1059 ( 518 0 ) capacitor c=0.00440144f //x=33.67 //y=0
c1060 ( 516 0 ) capacitor c=0.107229f //x=32.56 //y=0
c1061 ( 515 0 ) capacitor c=0.00440144f //x=28.86 //y=0
c1062 ( 513 0 ) capacitor c=0.104143f //x=27.75 //y=0
c1063 ( 512 0 ) capacitor c=0.00440095f //x=25.6 //y=0
c1064 ( 511 0 ) capacitor c=0.108018f //x=24.42 //y=0
c1065 ( 510 0 ) capacitor c=0.00440144f //x=20.685 //y=0
c1066 ( 509 0 ) capacitor c=0.104091f //x=19.61 //y=0
c1067 ( 508 0 ) capacitor c=0.00440095f //x=17.46 //y=0
c1068 ( 507 0 ) capacitor c=0.105123f //x=16.28 //y=0
c1069 ( 506 0 ) capacitor c=0.00440095f //x=14.06 //y=0
c1070 ( 504 0 ) capacitor c=0.108248f //x=12.95 //y=0
c1071 ( 503 0 ) capacitor c=0.00440144f //x=9.25 //y=0
c1072 ( 501 0 ) capacitor c=0.108235f //x=8.14 //y=0
c1073 ( 500 0 ) capacitor c=0.00440144f //x=4.44 //y=0
c1074 ( 498 0 ) capacitor c=0.105313f //x=3.33 //y=0
c1075 ( 497 0 ) capacitor c=0.00440095f //x=1.18 //y=0
c1076 ( 488 0 ) capacitor c=0.00583665f //x=84.85 //y=0.45
c1077 ( 485 0 ) capacitor c=0.00542558f //x=84.765 //y=0.535
c1078 ( 484 0 ) capacitor c=0.00479856f //x=84.365 //y=0.45
c1079 ( 481 0 ) capacitor c=0.00707849f //x=84.28 //y=0.535
c1080 ( 476 0 ) capacitor c=0.00588377f //x=83.88 //y=0.45
c1081 ( 473 0 ) capacitor c=0.0190475f //x=83.795 //y=0
c1082 ( 465 0 ) capacitor c=0.0749789f //x=83.08 //y=0
c1083 ( 457 0 ) capacitor c=0.0389876f //x=81.015 //y=0
c1084 ( 451 0 ) capacitor c=0.0716428f //x=79.75 //y=0
c1085 ( 445 0 ) capacitor c=0.0388276f //x=77.685 //y=0
c1086 ( 437 0 ) capacitor c=0.071962f //x=76.42 //y=0
c1087 ( 429 0 ) capacitor c=0.0391432f //x=74.355 //y=0
c1088 ( 419 0 ) capacitor c=0.133607f //x=73.09 //y=0
c1089 ( 411 0 ) capacitor c=0.0339325f //x=69.44 //y=0
c1090 ( 403 0 ) capacitor c=0.0718026f //x=68.28 //y=0
c1091 ( 395 0 ) capacitor c=0.0388888f //x=66.215 //y=0
c1092 ( 389 0 ) capacitor c=0.0718026f //x=64.95 //y=0
c1093 ( 383 0 ) capacitor c=0.0388888f //x=62.885 //y=0
c1094 ( 373 0 ) capacitor c=0.133362f //x=61.62 //y=0
c1095 ( 367 0 ) capacitor c=0.0339325f //x=57.97 //y=0
c1096 ( 357 0 ) capacitor c=0.133362f //x=56.81 //y=0
c1097 ( 351 0 ) capacitor c=0.0339325f //x=53.16 //y=0
c1098 ( 343 0 ) capacitor c=0.0718026f //x=52 //y=0
c1099 ( 335 0 ) capacitor c=0.0388888f //x=49.935 //y=0
c1100 ( 325 0 ) capacitor c=0.133362f //x=48.67 //y=0
c1101 ( 317 0 ) capacitor c=0.0339325f //x=45.02 //y=0
c1102 ( 309 0 ) capacitor c=0.0718026f //x=43.86 //y=0
c1103 ( 301 0 ) capacitor c=0.0388888f //x=41.795 //y=0
c1104 ( 295 0 ) capacitor c=0.0718026f //x=40.53 //y=0
c1105 ( 289 0 ) capacitor c=0.0388888f //x=38.465 //y=0
c1106 ( 279 0 ) capacitor c=0.133362f //x=37.2 //y=0
c1107 ( 273 0 ) capacitor c=0.0339325f //x=33.55 //y=0
c1108 ( 263 0 ) capacitor c=0.133362f //x=32.39 //y=0
c1109 ( 257 0 ) capacitor c=0.0339325f //x=28.74 //y=0
c1110 ( 249 0 ) capacitor c=0.0718026f //x=27.58 //y=0
c1111 ( 241 0 ) capacitor c=0.0388888f //x=25.515 //y=0
c1112 ( 231 0 ) capacitor c=0.133362f //x=24.25 //y=0
c1113 ( 223 0 ) capacitor c=0.0339325f //x=20.6 //y=0
c1114 ( 215 0 ) capacitor c=0.0718026f //x=19.44 //y=0
c1115 ( 207 0 ) capacitor c=0.0388888f //x=17.375 //y=0
c1116 ( 201 0 ) capacitor c=0.0718026f //x=16.11 //y=0
c1117 ( 195 0 ) capacitor c=0.0388888f //x=14.045 //y=0
c1118 ( 185 0 ) capacitor c=0.133404f //x=12.78 //y=0
c1119 ( 179 0 ) capacitor c=0.0339482f //x=9.13 //y=0
c1120 ( 169 0 ) capacitor c=0.133515f //x=7.97 //y=0
c1121 ( 163 0 ) capacitor c=0.0339482f //x=4.32 //y=0
c1122 ( 155 0 ) capacitor c=0.0720441f //x=3.16 //y=0
c1123 ( 150 0 ) capacitor c=0.179262f //x=0.74 //y=0
c1124 ( 147 0 ) capacitor c=0.0426751f //x=1.095 //y=0
c1125 ( 143 0 ) capacitor c=2.59091f //x=84.73 //y=0
r1126 (  554 555 ) resistor r=4.30252 //w=0.357 //l=0.12 //layer=li \
 //thickness=0.1 //x=84.73 //y=0 //x2=84.85 //y2=0
r1127 (  552 554 ) resistor r=13.0868 //w=0.357 //l=0.365 //layer=li \
 //thickness=0.1 //x=84.365 //y=0 //x2=84.73 //y2=0
r1128 (  551 552 ) resistor r=13.4454 //w=0.357 //l=0.375 //layer=li \
 //thickness=0.1 //x=83.99 //y=0 //x2=84.365 //y2=0
r1129 (  549 551 ) resistor r=3.94398 //w=0.357 //l=0.11 //layer=li \
 //thickness=0.1 //x=83.88 //y=0 //x2=83.99 //y2=0
r1130 (  489 583 ) resistor r=5.4201 //w=0.17 //l=0.085 //layer=li \
 //thickness=0.1 //x=84.85 //y=0.62 //x2=84.85 //y2=0.535
r1131 (  489 583 ) resistor r=41.4118 //w=0.187 //l=0.605 //layer=li \
 //thickness=0.1 //x=84.85 //y=0.62 //x2=84.85 //y2=1.225
r1132 (  488 583 ) resistor r=5.4201 //w=0.17 //l=0.085 //layer=li \
 //thickness=0.1 //x=84.85 //y=0.45 //x2=84.85 //y2=0.535
r1133 (  487 555 ) resistor r=5.03728 //w=0.34 //l=0.17 //layer=li \
 //thickness=0.1 //x=84.85 //y=0.17 //x2=84.85 //y2=0
r1134 (  487 488 ) resistor r=19.1658 //w=0.187 //l=0.28 //layer=li \
 //thickness=0.1 //x=84.85 //y=0.17 //x2=84.85 //y2=0.45
r1135 (  486 583 ) resistor r=5.4201 //w=0.17 //l=0.085 //layer=li \
 //thickness=0.1 //x=84.45 //y=0.535 //x2=84.365 //y2=0.535
r1136 (  485 583 ) resistor r=1.40859 //w=0.34 //l=0.085 //layer=li \
 //thickness=0.1 //x=84.765 //y=0.535 //x2=84.85 //y2=0.535
r1137 (  485 486 ) resistor r=21.5615 //w=0.187 //l=0.315 //layer=li \
 //thickness=0.1 //x=84.765 //y=0.535 //x2=84.45 //y2=0.535
r1138 (  484 583 ) resistor r=1.40859 //w=0.34 //l=0.085 //layer=li \
 //thickness=0.1 //x=84.365 //y=0.45 //x2=84.365 //y2=0.535
r1139 (  483 552 ) resistor r=5.03728 //w=0.34 //l=0.17 //layer=li \
 //thickness=0.1 //x=84.365 //y=0.17 //x2=84.365 //y2=0
r1140 (  483 484 ) resistor r=19.1658 //w=0.187 //l=0.28 //layer=li \
 //thickness=0.1 //x=84.365 //y=0.17 //x2=84.365 //y2=0.45
r1141 (  482 583 ) resistor r=1.40859 //w=0.34 //l=0.085 //layer=li \
 //thickness=0.1 //x=83.965 //y=0.535 //x2=83.88 //y2=0.535
r1142 (  481 583 ) resistor r=5.4201 //w=0.17 //l=0.085 //layer=li \
 //thickness=0.1 //x=84.28 //y=0.535 //x2=84.365 //y2=0.535
r1143 (  481 482 ) resistor r=21.5615 //w=0.187 //l=0.315 //layer=li \
 //thickness=0.1 //x=84.28 //y=0.535 //x2=83.965 //y2=0.535
r1144 (  477 583 ) resistor r=5.4201 //w=0.17 //l=0.085 //layer=li \
 //thickness=0.1 //x=83.88 //y=0.62 //x2=83.88 //y2=0.535
r1145 (  477 583 ) resistor r=41.4118 //w=0.187 //l=0.605 //layer=li \
 //thickness=0.1 //x=83.88 //y=0.62 //x2=83.88 //y2=1.225
r1146 (  476 583 ) resistor r=5.4201 //w=0.17 //l=0.085 //layer=li \
 //thickness=0.1 //x=83.88 //y=0.45 //x2=83.88 //y2=0.535
r1147 (  475 549 ) resistor r=5.03728 //w=0.34 //l=0.17 //layer=li \
 //thickness=0.1 //x=83.88 //y=0.17 //x2=83.88 //y2=0
r1148 (  475 476 ) resistor r=19.1658 //w=0.187 //l=0.28 //layer=li \
 //thickness=0.1 //x=83.88 //y=0.17 //x2=83.88 //y2=0.45
r1149 (  474 548 ) resistor r=5.4201 //w=0.34 //l=0.17 //layer=li \
 //thickness=0.1 //x=83.42 //y=0 //x2=83.25 //y2=0
r1150 (  473 549 ) resistor r=3.04762 //w=0.357 //l=0.085 //layer=li \
 //thickness=0.1 //x=83.795 //y=0 //x2=83.88 //y2=0
r1151 (  473 474 ) resistor r=13.4454 //w=0.357 //l=0.375 //layer=li \
 //thickness=0.1 //x=83.795 //y=0 //x2=83.42 //y2=0
r1152 (  468 470 ) resistor r=39.7983 //w=0.357 //l=1.11 //layer=li \
 //thickness=0.1 //x=81.4 //y=0 //x2=82.51 //y2=0
r1153 (  466 547 ) resistor r=2.94794 //w=0.34 //l=0.085 //layer=li \
 //thickness=0.1 //x=81.185 //y=0 //x2=81.1 //y2=0
r1154 (  466 468 ) resistor r=7.70868 //w=0.357 //l=0.215 //layer=li \
 //thickness=0.1 //x=81.185 //y=0 //x2=81.4 //y2=0
r1155 (  465 548 ) resistor r=5.4201 //w=0.34 //l=0.17 //layer=li \
 //thickness=0.1 //x=83.08 //y=0 //x2=83.25 //y2=0
r1156 (  465 470 ) resistor r=20.437 //w=0.357 //l=0.57 //layer=li \
 //thickness=0.1 //x=83.08 //y=0 //x2=82.51 //y2=0
r1157 (  461 547 ) resistor r=4.11603 //w=0.68 //l=0.17 //layer=li \
 //thickness=0.1 //x=81.1 //y=0.17 //x2=81.1 //y2=0
r1158 (  461 582 ) resistor r=53.7326 //w=0.187 //l=0.785 //layer=li \
 //thickness=0.1 //x=81.1 //y=0.17 //x2=81.1 //y2=0.955
r1159 (  458 546 ) resistor r=5.4201 //w=0.34 //l=0.17 //layer=li \
 //thickness=0.1 //x=80.09 //y=0 //x2=79.92 //y2=0
r1160 (  458 460 ) resistor r=7.17087 //w=0.357 //l=0.2 //layer=li \
 //thickness=0.1 //x=80.09 //y=0 //x2=80.29 //y2=0
r1161 (  457 547 ) resistor r=2.94794 //w=0.34 //l=0.085 //layer=li \
 //thickness=0.1 //x=81.015 //y=0 //x2=81.1 //y2=0
r1162 (  457 460 ) resistor r=25.9944 //w=0.357 //l=0.725 //layer=li \
 //thickness=0.1 //x=81.015 //y=0 //x2=80.29 //y2=0
r1163 (  452 545 ) resistor r=2.94794 //w=0.34 //l=0.085 //layer=li \
 //thickness=0.1 //x=77.855 //y=0 //x2=77.77 //y2=0
r1164 (  452 454 ) resistor r=34.2409 //w=0.357 //l=0.955 //layer=li \
 //thickness=0.1 //x=77.855 //y=0 //x2=78.81 //y2=0
r1165 (  451 546 ) resistor r=5.4201 //w=0.34 //l=0.17 //layer=li \
 //thickness=0.1 //x=79.75 //y=0 //x2=79.92 //y2=0
r1166 (  451 454 ) resistor r=33.7031 //w=0.357 //l=0.94 //layer=li \
 //thickness=0.1 //x=79.75 //y=0 //x2=78.81 //y2=0
r1167 (  447 545 ) resistor r=4.11603 //w=0.68 //l=0.17 //layer=li \
 //thickness=0.1 //x=77.77 //y=0.17 //x2=77.77 //y2=0
r1168 (  447 581 ) resistor r=53.7326 //w=0.187 //l=0.785 //layer=li \
 //thickness=0.1 //x=77.77 //y=0.17 //x2=77.77 //y2=0.955
r1169 (  446 543 ) resistor r=5.4201 //w=0.34 //l=0.17 //layer=li \
 //thickness=0.1 //x=76.76 //y=0 //x2=76.59 //y2=0
r1170 (  445 545 ) resistor r=2.94794 //w=0.34 //l=0.085 //layer=li \
 //thickness=0.1 //x=77.685 //y=0 //x2=77.77 //y2=0
r1171 (  445 446 ) resistor r=33.1653 //w=0.357 //l=0.925 //layer=li \
 //thickness=0.1 //x=77.685 //y=0 //x2=76.76 //y2=0
r1172 (  440 442 ) resistor r=39.7983 //w=0.357 //l=1.11 //layer=li \
 //thickness=0.1 //x=75.11 //y=0 //x2=76.22 //y2=0
r1173 (  438 542 ) resistor r=2.94794 //w=0.34 //l=0.085 //layer=li \
 //thickness=0.1 //x=74.525 //y=0 //x2=74.44 //y2=0
r1174 (  438 440 ) resistor r=20.9748 //w=0.357 //l=0.585 //layer=li \
 //thickness=0.1 //x=74.525 //y=0 //x2=75.11 //y2=0
r1175 (  437 543 ) resistor r=5.4201 //w=0.34 //l=0.17 //layer=li \
 //thickness=0.1 //x=76.42 //y=0 //x2=76.59 //y2=0
r1176 (  437 442 ) resistor r=7.17087 //w=0.357 //l=0.2 //layer=li \
 //thickness=0.1 //x=76.42 //y=0 //x2=76.22 //y2=0
r1177 (  433 542 ) resistor r=4.11603 //w=0.68 //l=0.17 //layer=li \
 //thickness=0.1 //x=74.44 //y=0.17 //x2=74.44 //y2=0
r1178 (  433 580 ) resistor r=53.7326 //w=0.187 //l=0.785 //layer=li \
 //thickness=0.1 //x=74.44 //y=0.17 //x2=74.44 //y2=0.955
r1179 (  430 541 ) resistor r=5.4201 //w=0.34 //l=0.17 //layer=li \
 //thickness=0.1 //x=73.43 //y=0 //x2=73.26 //y2=0
r1180 (  430 432 ) resistor r=20.437 //w=0.357 //l=0.57 //layer=li \
 //thickness=0.1 //x=73.43 //y=0 //x2=74 //y2=0
r1181 (  429 542 ) resistor r=2.94794 //w=0.34 //l=0.085 //layer=li \
 //thickness=0.1 //x=74.355 //y=0 //x2=74.44 //y2=0
r1182 (  429 432 ) resistor r=12.7283 //w=0.357 //l=0.355 //layer=li \
 //thickness=0.1 //x=74.355 //y=0 //x2=74 //y2=0
r1183 (  424 426 ) resistor r=39.7983 //w=0.357 //l=1.11 //layer=li \
 //thickness=0.1 //x=71.41 //y=0 //x2=72.52 //y2=0
r1184 (  422 424 ) resistor r=39.7983 //w=0.357 //l=1.11 //layer=li \
 //thickness=0.1 //x=70.3 //y=0 //x2=71.41 //y2=0
r1185 (  420 540 ) resistor r=2.94794 //w=0.34 //l=0.085 //layer=li \
 //thickness=0.1 //x=69.61 //y=0 //x2=69.525 //y2=0
r1186 (  420 422 ) resistor r=24.7395 //w=0.357 //l=0.69 //layer=li \
 //thickness=0.1 //x=69.61 //y=0 //x2=70.3 //y2=0
r1187 (  419 541 ) resistor r=5.4201 //w=0.34 //l=0.17 //layer=li \
 //thickness=0.1 //x=73.09 //y=0 //x2=73.26 //y2=0
r1188 (  419 426 ) resistor r=20.437 //w=0.357 //l=0.57 //layer=li \
 //thickness=0.1 //x=73.09 //y=0 //x2=72.52 //y2=0
r1189 (  415 540 ) resistor r=4.11603 //w=0.68 //l=0.17 //layer=li \
 //thickness=0.1 //x=69.525 //y=0.17 //x2=69.525 //y2=0
r1190 (  415 579 ) resistor r=54.4171 //w=0.187 //l=0.795 //layer=li \
 //thickness=0.1 //x=69.525 //y=0.17 //x2=69.525 //y2=0.965
r1191 (  412 539 ) resistor r=5.4201 //w=0.34 //l=0.17 //layer=li \
 //thickness=0.1 //x=68.62 //y=0 //x2=68.45 //y2=0
r1192 (  412 414 ) resistor r=20.437 //w=0.357 //l=0.57 //layer=li \
 //thickness=0.1 //x=68.62 //y=0 //x2=69.19 //y2=0
r1193 (  411 540 ) resistor r=2.94794 //w=0.34 //l=0.085 //layer=li \
 //thickness=0.1 //x=69.44 //y=0 //x2=69.525 //y2=0
r1194 (  411 414 ) resistor r=8.96359 //w=0.357 //l=0.25 //layer=li \
 //thickness=0.1 //x=69.44 //y=0 //x2=69.19 //y2=0
r1195 (  406 408 ) resistor r=39.7983 //w=0.357 //l=1.11 //layer=li \
 //thickness=0.1 //x=66.6 //y=0 //x2=67.71 //y2=0
r1196 (  404 538 ) resistor r=2.94794 //w=0.34 //l=0.085 //layer=li \
 //thickness=0.1 //x=66.385 //y=0 //x2=66.3 //y2=0
r1197 (  404 406 ) resistor r=7.70868 //w=0.357 //l=0.215 //layer=li \
 //thickness=0.1 //x=66.385 //y=0 //x2=66.6 //y2=0
r1198 (  403 539 ) resistor r=5.4201 //w=0.34 //l=0.17 //layer=li \
 //thickness=0.1 //x=68.28 //y=0 //x2=68.45 //y2=0
r1199 (  403 408 ) resistor r=20.437 //w=0.357 //l=0.57 //layer=li \
 //thickness=0.1 //x=68.28 //y=0 //x2=67.71 //y2=0
r1200 (  399 538 ) resistor r=4.11603 //w=0.68 //l=0.17 //layer=li \
 //thickness=0.1 //x=66.3 //y=0.17 //x2=66.3 //y2=0
r1201 (  399 578 ) resistor r=53.7326 //w=0.187 //l=0.785 //layer=li \
 //thickness=0.1 //x=66.3 //y=0.17 //x2=66.3 //y2=0.955
r1202 (  396 537 ) resistor r=5.4201 //w=0.34 //l=0.17 //layer=li \
 //thickness=0.1 //x=65.29 //y=0 //x2=65.12 //y2=0
r1203 (  396 398 ) resistor r=7.17087 //w=0.357 //l=0.2 //layer=li \
 //thickness=0.1 //x=65.29 //y=0 //x2=65.49 //y2=0
r1204 (  395 538 ) resistor r=2.94794 //w=0.34 //l=0.085 //layer=li \
 //thickness=0.1 //x=66.215 //y=0 //x2=66.3 //y2=0
r1205 (  395 398 ) resistor r=25.9944 //w=0.357 //l=0.725 //layer=li \
 //thickness=0.1 //x=66.215 //y=0 //x2=65.49 //y2=0
r1206 (  390 536 ) resistor r=2.94794 //w=0.34 //l=0.085 //layer=li \
 //thickness=0.1 //x=63.055 //y=0 //x2=62.97 //y2=0
r1207 (  390 392 ) resistor r=34.2409 //w=0.357 //l=0.955 //layer=li \
 //thickness=0.1 //x=63.055 //y=0 //x2=64.01 //y2=0
r1208 (  389 537 ) resistor r=5.4201 //w=0.34 //l=0.17 //layer=li \
 //thickness=0.1 //x=64.95 //y=0 //x2=65.12 //y2=0
r1209 (  389 392 ) resistor r=33.7031 //w=0.357 //l=0.94 //layer=li \
 //thickness=0.1 //x=64.95 //y=0 //x2=64.01 //y2=0
r1210 (  385 536 ) resistor r=4.11603 //w=0.68 //l=0.17 //layer=li \
 //thickness=0.1 //x=62.97 //y=0.17 //x2=62.97 //y2=0
r1211 (  385 577 ) resistor r=53.7326 //w=0.187 //l=0.785 //layer=li \
 //thickness=0.1 //x=62.97 //y=0.17 //x2=62.97 //y2=0.955
r1212 (  384 534 ) resistor r=5.4201 //w=0.34 //l=0.17 //layer=li \
 //thickness=0.1 //x=61.96 //y=0 //x2=61.79 //y2=0
r1213 (  383 536 ) resistor r=2.94794 //w=0.34 //l=0.085 //layer=li \
 //thickness=0.1 //x=62.885 //y=0 //x2=62.97 //y2=0
r1214 (  383 384 ) resistor r=33.1653 //w=0.357 //l=0.925 //layer=li \
 //thickness=0.1 //x=62.885 //y=0 //x2=61.96 //y2=0
r1215 (  378 380 ) resistor r=39.7983 //w=0.357 //l=1.11 //layer=li \
 //thickness=0.1 //x=60.31 //y=0 //x2=61.42 //y2=0
r1216 (  376 378 ) resistor r=39.7983 //w=0.357 //l=1.11 //layer=li \
 //thickness=0.1 //x=59.2 //y=0 //x2=60.31 //y2=0
r1217 (  374 533 ) resistor r=2.94794 //w=0.34 //l=0.085 //layer=li \
 //thickness=0.1 //x=58.14 //y=0 //x2=58.055 //y2=0
r1218 (  374 376 ) resistor r=38.0056 //w=0.357 //l=1.06 //layer=li \
 //thickness=0.1 //x=58.14 //y=0 //x2=59.2 //y2=0
r1219 (  373 534 ) resistor r=5.4201 //w=0.34 //l=0.17 //layer=li \
 //thickness=0.1 //x=61.62 //y=0 //x2=61.79 //y2=0
r1220 (  373 380 ) resistor r=7.17087 //w=0.357 //l=0.2 //layer=li \
 //thickness=0.1 //x=61.62 //y=0 //x2=61.42 //y2=0
r1221 (  369 533 ) resistor r=4.11603 //w=0.68 //l=0.17 //layer=li \
 //thickness=0.1 //x=58.055 //y=0.17 //x2=58.055 //y2=0
r1222 (  369 576 ) resistor r=54.4171 //w=0.187 //l=0.795 //layer=li \
 //thickness=0.1 //x=58.055 //y=0.17 //x2=58.055 //y2=0.965
r1223 (  368 531 ) resistor r=5.4201 //w=0.34 //l=0.17 //layer=li \
 //thickness=0.1 //x=57.15 //y=0 //x2=56.98 //y2=0
r1224 (  367 533 ) resistor r=2.94794 //w=0.34 //l=0.085 //layer=li \
 //thickness=0.1 //x=57.97 //y=0 //x2=58.055 //y2=0
r1225 (  367 368 ) resistor r=29.4006 //w=0.357 //l=0.82 //layer=li \
 //thickness=0.1 //x=57.97 //y=0 //x2=57.15 //y2=0
r1226 (  362 364 ) resistor r=39.7983 //w=0.357 //l=1.11 //layer=li \
 //thickness=0.1 //x=55.5 //y=0 //x2=56.61 //y2=0
r1227 (  360 362 ) resistor r=39.7983 //w=0.357 //l=1.11 //layer=li \
 //thickness=0.1 //x=54.39 //y=0 //x2=55.5 //y2=0
r1228 (  358 530 ) resistor r=2.94794 //w=0.34 //l=0.085 //layer=li \
 //thickness=0.1 //x=53.33 //y=0 //x2=53.245 //y2=0
r1229 (  358 360 ) resistor r=38.0056 //w=0.357 //l=1.06 //layer=li \
 //thickness=0.1 //x=53.33 //y=0 //x2=54.39 //y2=0
r1230 (  357 531 ) resistor r=5.4201 //w=0.34 //l=0.17 //layer=li \
 //thickness=0.1 //x=56.81 //y=0 //x2=56.98 //y2=0
r1231 (  357 364 ) resistor r=7.17087 //w=0.357 //l=0.2 //layer=li \
 //thickness=0.1 //x=56.81 //y=0 //x2=56.61 //y2=0
r1232 (  353 530 ) resistor r=4.11603 //w=0.68 //l=0.17 //layer=li \
 //thickness=0.1 //x=53.245 //y=0.17 //x2=53.245 //y2=0
r1233 (  353 575 ) resistor r=54.4171 //w=0.187 //l=0.795 //layer=li \
 //thickness=0.1 //x=53.245 //y=0.17 //x2=53.245 //y2=0.965
r1234 (  352 528 ) resistor r=5.4201 //w=0.34 //l=0.17 //layer=li \
 //thickness=0.1 //x=52.34 //y=0 //x2=52.17 //y2=0
r1235 (  351 530 ) resistor r=2.94794 //w=0.34 //l=0.085 //layer=li \
 //thickness=0.1 //x=53.16 //y=0 //x2=53.245 //y2=0
r1236 (  351 352 ) resistor r=29.4006 //w=0.357 //l=0.82 //layer=li \
 //thickness=0.1 //x=53.16 //y=0 //x2=52.34 //y2=0
r1237 (  346 348 ) resistor r=39.7983 //w=0.357 //l=1.11 //layer=li \
 //thickness=0.1 //x=50.69 //y=0 //x2=51.8 //y2=0
r1238 (  344 527 ) resistor r=2.94794 //w=0.34 //l=0.085 //layer=li \
 //thickness=0.1 //x=50.105 //y=0 //x2=50.02 //y2=0
r1239 (  344 346 ) resistor r=20.9748 //w=0.357 //l=0.585 //layer=li \
 //thickness=0.1 //x=50.105 //y=0 //x2=50.69 //y2=0
r1240 (  343 528 ) resistor r=5.4201 //w=0.34 //l=0.17 //layer=li \
 //thickness=0.1 //x=52 //y=0 //x2=52.17 //y2=0
r1241 (  343 348 ) resistor r=7.17087 //w=0.357 //l=0.2 //layer=li \
 //thickness=0.1 //x=52 //y=0 //x2=51.8 //y2=0
r1242 (  339 527 ) resistor r=4.11603 //w=0.68 //l=0.17 //layer=li \
 //thickness=0.1 //x=50.02 //y=0.17 //x2=50.02 //y2=0
r1243 (  339 574 ) resistor r=53.7326 //w=0.187 //l=0.785 //layer=li \
 //thickness=0.1 //x=50.02 //y=0.17 //x2=50.02 //y2=0.955
r1244 (  336 526 ) resistor r=5.4201 //w=0.34 //l=0.17 //layer=li \
 //thickness=0.1 //x=49.01 //y=0 //x2=48.84 //y2=0
r1245 (  336 338 ) resistor r=20.437 //w=0.357 //l=0.57 //layer=li \
 //thickness=0.1 //x=49.01 //y=0 //x2=49.58 //y2=0
r1246 (  335 527 ) resistor r=2.94794 //w=0.34 //l=0.085 //layer=li \
 //thickness=0.1 //x=49.935 //y=0 //x2=50.02 //y2=0
r1247 (  335 338 ) resistor r=12.7283 //w=0.357 //l=0.355 //layer=li \
 //thickness=0.1 //x=49.935 //y=0 //x2=49.58 //y2=0
r1248 (  330 332 ) resistor r=39.7983 //w=0.357 //l=1.11 //layer=li \
 //thickness=0.1 //x=46.99 //y=0 //x2=48.1 //y2=0
r1249 (  328 330 ) resistor r=39.7983 //w=0.357 //l=1.11 //layer=li \
 //thickness=0.1 //x=45.88 //y=0 //x2=46.99 //y2=0
r1250 (  326 525 ) resistor r=2.94794 //w=0.34 //l=0.085 //layer=li \
 //thickness=0.1 //x=45.19 //y=0 //x2=45.105 //y2=0
r1251 (  326 328 ) resistor r=24.7395 //w=0.357 //l=0.69 //layer=li \
 //thickness=0.1 //x=45.19 //y=0 //x2=45.88 //y2=0
r1252 (  325 526 ) resistor r=5.4201 //w=0.34 //l=0.17 //layer=li \
 //thickness=0.1 //x=48.67 //y=0 //x2=48.84 //y2=0
r1253 (  325 332 ) resistor r=20.437 //w=0.357 //l=0.57 //layer=li \
 //thickness=0.1 //x=48.67 //y=0 //x2=48.1 //y2=0
r1254 (  321 525 ) resistor r=4.11603 //w=0.68 //l=0.17 //layer=li \
 //thickness=0.1 //x=45.105 //y=0.17 //x2=45.105 //y2=0
r1255 (  321 573 ) resistor r=54.4171 //w=0.187 //l=0.795 //layer=li \
 //thickness=0.1 //x=45.105 //y=0.17 //x2=45.105 //y2=0.965
r1256 (  318 524 ) resistor r=5.4201 //w=0.34 //l=0.17 //layer=li \
 //thickness=0.1 //x=44.2 //y=0 //x2=44.03 //y2=0
r1257 (  318 320 ) resistor r=20.437 //w=0.357 //l=0.57 //layer=li \
 //thickness=0.1 //x=44.2 //y=0 //x2=44.77 //y2=0
r1258 (  317 525 ) resistor r=2.94794 //w=0.34 //l=0.085 //layer=li \
 //thickness=0.1 //x=45.02 //y=0 //x2=45.105 //y2=0
r1259 (  317 320 ) resistor r=8.96359 //w=0.357 //l=0.25 //layer=li \
 //thickness=0.1 //x=45.02 //y=0 //x2=44.77 //y2=0
r1260 (  312 314 ) resistor r=39.7983 //w=0.357 //l=1.11 //layer=li \
 //thickness=0.1 //x=42.18 //y=0 //x2=43.29 //y2=0
r1261 (  310 523 ) resistor r=2.94794 //w=0.34 //l=0.085 //layer=li \
 //thickness=0.1 //x=41.965 //y=0 //x2=41.88 //y2=0
r1262 (  310 312 ) resistor r=7.70868 //w=0.357 //l=0.215 //layer=li \
 //thickness=0.1 //x=41.965 //y=0 //x2=42.18 //y2=0
r1263 (  309 524 ) resistor r=5.4201 //w=0.34 //l=0.17 //layer=li \
 //thickness=0.1 //x=43.86 //y=0 //x2=44.03 //y2=0
r1264 (  309 314 ) resistor r=20.437 //w=0.357 //l=0.57 //layer=li \
 //thickness=0.1 //x=43.86 //y=0 //x2=43.29 //y2=0
r1265 (  305 523 ) resistor r=4.11603 //w=0.68 //l=0.17 //layer=li \
 //thickness=0.1 //x=41.88 //y=0.17 //x2=41.88 //y2=0
r1266 (  305 572 ) resistor r=53.7326 //w=0.187 //l=0.785 //layer=li \
 //thickness=0.1 //x=41.88 //y=0.17 //x2=41.88 //y2=0.955
r1267 (  302 522 ) resistor r=5.4201 //w=0.34 //l=0.17 //layer=li \
 //thickness=0.1 //x=40.87 //y=0 //x2=40.7 //y2=0
r1268 (  302 304 ) resistor r=7.17087 //w=0.357 //l=0.2 //layer=li \
 //thickness=0.1 //x=40.87 //y=0 //x2=41.07 //y2=0
r1269 (  301 523 ) resistor r=2.94794 //w=0.34 //l=0.085 //layer=li \
 //thickness=0.1 //x=41.795 //y=0 //x2=41.88 //y2=0
r1270 (  301 304 ) resistor r=25.9944 //w=0.357 //l=0.725 //layer=li \
 //thickness=0.1 //x=41.795 //y=0 //x2=41.07 //y2=0
r1271 (  296 521 ) resistor r=2.94794 //w=0.34 //l=0.085 //layer=li \
 //thickness=0.1 //x=38.635 //y=0 //x2=38.55 //y2=0
r1272 (  296 298 ) resistor r=34.2409 //w=0.357 //l=0.955 //layer=li \
 //thickness=0.1 //x=38.635 //y=0 //x2=39.59 //y2=0
r1273 (  295 522 ) resistor r=5.4201 //w=0.34 //l=0.17 //layer=li \
 //thickness=0.1 //x=40.53 //y=0 //x2=40.7 //y2=0
r1274 (  295 298 ) resistor r=33.7031 //w=0.357 //l=0.94 //layer=li \
 //thickness=0.1 //x=40.53 //y=0 //x2=39.59 //y2=0
r1275 (  291 521 ) resistor r=4.11603 //w=0.68 //l=0.17 //layer=li \
 //thickness=0.1 //x=38.55 //y=0.17 //x2=38.55 //y2=0
r1276 (  291 571 ) resistor r=53.7326 //w=0.187 //l=0.785 //layer=li \
 //thickness=0.1 //x=38.55 //y=0.17 //x2=38.55 //y2=0.955
r1277 (  290 519 ) resistor r=5.4201 //w=0.34 //l=0.17 //layer=li \
 //thickness=0.1 //x=37.54 //y=0 //x2=37.37 //y2=0
r1278 (  289 521 ) resistor r=2.94794 //w=0.34 //l=0.085 //layer=li \
 //thickness=0.1 //x=38.465 //y=0 //x2=38.55 //y2=0
r1279 (  289 290 ) resistor r=33.1653 //w=0.357 //l=0.925 //layer=li \
 //thickness=0.1 //x=38.465 //y=0 //x2=37.54 //y2=0
r1280 (  284 286 ) resistor r=39.7983 //w=0.357 //l=1.11 //layer=li \
 //thickness=0.1 //x=35.89 //y=0 //x2=37 //y2=0
r1281 (  282 284 ) resistor r=39.7983 //w=0.357 //l=1.11 //layer=li \
 //thickness=0.1 //x=34.78 //y=0 //x2=35.89 //y2=0
r1282 (  280 518 ) resistor r=2.94794 //w=0.34 //l=0.085 //layer=li \
 //thickness=0.1 //x=33.72 //y=0 //x2=33.635 //y2=0
r1283 (  280 282 ) resistor r=38.0056 //w=0.357 //l=1.06 //layer=li \
 //thickness=0.1 //x=33.72 //y=0 //x2=34.78 //y2=0
r1284 (  279 519 ) resistor r=5.4201 //w=0.34 //l=0.17 //layer=li \
 //thickness=0.1 //x=37.2 //y=0 //x2=37.37 //y2=0
r1285 (  279 286 ) resistor r=7.17087 //w=0.357 //l=0.2 //layer=li \
 //thickness=0.1 //x=37.2 //y=0 //x2=37 //y2=0
r1286 (  275 518 ) resistor r=4.11603 //w=0.68 //l=0.17 //layer=li \
 //thickness=0.1 //x=33.635 //y=0.17 //x2=33.635 //y2=0
r1287 (  275 570 ) resistor r=54.4171 //w=0.187 //l=0.795 //layer=li \
 //thickness=0.1 //x=33.635 //y=0.17 //x2=33.635 //y2=0.965
r1288 (  274 516 ) resistor r=5.4201 //w=0.34 //l=0.17 //layer=li \
 //thickness=0.1 //x=32.73 //y=0 //x2=32.56 //y2=0
r1289 (  273 518 ) resistor r=2.94794 //w=0.34 //l=0.085 //layer=li \
 //thickness=0.1 //x=33.55 //y=0 //x2=33.635 //y2=0
r1290 (  273 274 ) resistor r=29.4006 //w=0.357 //l=0.82 //layer=li \
 //thickness=0.1 //x=33.55 //y=0 //x2=32.73 //y2=0
r1291 (  268 270 ) resistor r=39.7983 //w=0.357 //l=1.11 //layer=li \
 //thickness=0.1 //x=31.08 //y=0 //x2=32.19 //y2=0
r1292 (  266 268 ) resistor r=39.7983 //w=0.357 //l=1.11 //layer=li \
 //thickness=0.1 //x=29.97 //y=0 //x2=31.08 //y2=0
r1293 (  264 515 ) resistor r=2.94794 //w=0.34 //l=0.085 //layer=li \
 //thickness=0.1 //x=28.91 //y=0 //x2=28.825 //y2=0
r1294 (  264 266 ) resistor r=38.0056 //w=0.357 //l=1.06 //layer=li \
 //thickness=0.1 //x=28.91 //y=0 //x2=29.97 //y2=0
r1295 (  263 516 ) resistor r=5.4201 //w=0.34 //l=0.17 //layer=li \
 //thickness=0.1 //x=32.39 //y=0 //x2=32.56 //y2=0
r1296 (  263 270 ) resistor r=7.17087 //w=0.357 //l=0.2 //layer=li \
 //thickness=0.1 //x=32.39 //y=0 //x2=32.19 //y2=0
r1297 (  259 515 ) resistor r=4.11603 //w=0.68 //l=0.17 //layer=li \
 //thickness=0.1 //x=28.825 //y=0.17 //x2=28.825 //y2=0
r1298 (  259 569 ) resistor r=54.4171 //w=0.187 //l=0.795 //layer=li \
 //thickness=0.1 //x=28.825 //y=0.17 //x2=28.825 //y2=0.965
r1299 (  258 513 ) resistor r=5.4201 //w=0.34 //l=0.17 //layer=li \
 //thickness=0.1 //x=27.92 //y=0 //x2=27.75 //y2=0
r1300 (  257 515 ) resistor r=2.94794 //w=0.34 //l=0.085 //layer=li \
 //thickness=0.1 //x=28.74 //y=0 //x2=28.825 //y2=0
r1301 (  257 258 ) resistor r=29.4006 //w=0.357 //l=0.82 //layer=li \
 //thickness=0.1 //x=28.74 //y=0 //x2=27.92 //y2=0
r1302 (  252 254 ) resistor r=39.7983 //w=0.357 //l=1.11 //layer=li \
 //thickness=0.1 //x=26.27 //y=0 //x2=27.38 //y2=0
r1303 (  250 512 ) resistor r=2.94794 //w=0.34 //l=0.085 //layer=li \
 //thickness=0.1 //x=25.685 //y=0 //x2=25.6 //y2=0
r1304 (  250 252 ) resistor r=20.9748 //w=0.357 //l=0.585 //layer=li \
 //thickness=0.1 //x=25.685 //y=0 //x2=26.27 //y2=0
r1305 (  249 513 ) resistor r=5.4201 //w=0.34 //l=0.17 //layer=li \
 //thickness=0.1 //x=27.58 //y=0 //x2=27.75 //y2=0
r1306 (  249 254 ) resistor r=7.17087 //w=0.357 //l=0.2 //layer=li \
 //thickness=0.1 //x=27.58 //y=0 //x2=27.38 //y2=0
r1307 (  245 512 ) resistor r=4.11603 //w=0.68 //l=0.17 //layer=li \
 //thickness=0.1 //x=25.6 //y=0.17 //x2=25.6 //y2=0
r1308 (  245 568 ) resistor r=53.7326 //w=0.187 //l=0.785 //layer=li \
 //thickness=0.1 //x=25.6 //y=0.17 //x2=25.6 //y2=0.955
r1309 (  242 511 ) resistor r=5.4201 //w=0.34 //l=0.17 //layer=li \
 //thickness=0.1 //x=24.59 //y=0 //x2=24.42 //y2=0
r1310 (  242 244 ) resistor r=20.437 //w=0.357 //l=0.57 //layer=li \
 //thickness=0.1 //x=24.59 //y=0 //x2=25.16 //y2=0
r1311 (  241 512 ) resistor r=2.94794 //w=0.34 //l=0.085 //layer=li \
 //thickness=0.1 //x=25.515 //y=0 //x2=25.6 //y2=0
r1312 (  241 244 ) resistor r=12.7283 //w=0.357 //l=0.355 //layer=li \
 //thickness=0.1 //x=25.515 //y=0 //x2=25.16 //y2=0
r1313 (  236 238 ) resistor r=39.7983 //w=0.357 //l=1.11 //layer=li \