// File: TMRDFFRNQX1.spi.pex
// Created: Tue Oct 15 15:52:17 2024
// Program "Calibre xRC"
// Version "v2023.2_27.15"
// Nominal Temperature: 30C
// Circuit Temperature: 30C
// 
simulator lang=spectre
subckt PM_TMRDFFRNQX1\%GND ( 1 151 155 158 163 173 181 191 199 207 213 223 229 \
 239 245 251 259 269 277 287 295 303 311 321 329 339 347 355 361 371 377 387 \
 393 399 407 417 425 435 443 451 459 467 473 479 487 498 503 507 520 522 524 \
 527 530 533 535 537 539 541 543 545 548 551 554 556 558 560 562 565 567 574 \
 581 582 583 584 585 586 587 588 589 590 591 592 593 594 595 596 597 598 599 \
 600 601 602 )
c1025 ( 602 0 ) capacitor c=0.0604367f //x=88.185 //y=0.37
c1026 ( 601 0 ) capacitor c=0.0215012f //x=85.35 //y=0.865
c1027 ( 600 0 ) capacitor c=0.0215012f //x=82.02 //y=0.865
c1028 ( 599 0 ) capacitor c=0.0207524f //x=78.69 //y=0.865
c1029 ( 598 0 ) capacitor c=0.0207873f //x=75.36 //y=0.865
c1030 ( 597 0 ) capacitor c=0.0225954f //x=70.445 //y=0.875
c1031 ( 596 0 ) capacitor c=0.0226075f //x=65.635 //y=0.875
c1032 ( 595 0 ) capacitor c=0.0207407f //x=62.41 //y=0.865
c1033 ( 594 0 ) capacitor c=0.0225954f //x=57.495 //y=0.875
c1034 ( 593 0 ) capacitor c=0.0226075f //x=52.685 //y=0.875
c1035 ( 592 0 ) capacitor c=0.0207407f //x=49.46 //y=0.865
c1036 ( 591 0 ) capacitor c=0.0225954f //x=44.545 //y=0.875
c1037 ( 590 0 ) capacitor c=0.0226075f //x=39.735 //y=0.875
c1038 ( 589 0 ) capacitor c=0.0207407f //x=36.51 //y=0.865
c1039 ( 588 0 ) capacitor c=0.0225954f //x=31.595 //y=0.875
c1040 ( 587 0 ) capacitor c=0.0226075f //x=26.785 //y=0.875
c1041 ( 586 0 ) capacitor c=0.0207407f //x=23.56 //y=0.865
c1042 ( 585 0 ) capacitor c=0.0225954f //x=18.645 //y=0.875
c1043 ( 584 0 ) capacitor c=0.0226075f //x=13.835 //y=0.875
c1044 ( 583 0 ) capacitor c=0.0207407f //x=10.61 //y=0.865
c1045 ( 582 0 ) capacitor c=0.0226571f //x=5.695 //y=0.875
c1046 ( 581 0 ) capacitor c=0.022675f //x=0.885 //y=0.875
c1047 ( 574 0 ) capacitor c=0.234368f //x=89.29 //y=0
c1048 ( 567 0 ) capacitor c=0.101943f //x=87.69 //y=0
c1049 ( 566 0 ) capacitor c=0.00440095f //x=85.54 //y=0
c1050 ( 565 0 ) capacitor c=0.101477f //x=84.36 //y=0
c1051 ( 564 0 ) capacitor c=0.00440095f //x=82.14 //y=0
c1052 ( 562 0 ) capacitor c=0.116475f //x=81.03 //y=0
c1053 ( 561 0 ) capacitor c=0.00440095f //x=78.88 //y=0
c1054 ( 560 0 ) capacitor c=0.104074f //x=77.7 //y=0
c1055 ( 559 0 ) capacitor c=0.00440095f //x=75.55 //y=0
c1056 ( 558 0 ) capacitor c=0.109295f //x=74.37 //y=0
c1057 ( 557 0 ) capacitor c=0.00440144f //x=70.635 //y=0
c1058 ( 556 0 ) capacitor c=0.106903f //x=69.56 //y=0
c1059 ( 555 0 ) capacitor c=0.00440144f //x=65.825 //y=0
c1060 ( 554 0 ) capacitor c=0.10413f //x=64.75 //y=0
c1061 ( 553 0 ) capacitor c=0.00440095f //x=62.53 //y=0
c1062 ( 551 0 ) capacitor c=0.10799f //x=61.42 //y=0
c1063 ( 550 0 ) capacitor c=0.00440144f //x=57.72 //y=0
c1064 ( 548 0 ) capacitor c=0.107403f //x=56.61 //y=0
c1065 ( 547 0 ) capacitor c=0.00440144f //x=52.91 //y=0
c1066 ( 545 0 ) capacitor c=0.104579f //x=51.8 //y=0
c1067 ( 544 0 ) capacitor c=0.00440095f //x=49.65 //y=0
c1068 ( 543 0 ) capacitor c=0.108685f //x=48.47 //y=0
c1069 ( 542 0 ) capacitor c=0.00440144f //x=44.735 //y=0
c1070 ( 541 0 ) capacitor c=0.107329f //x=43.66 //y=0
c1071 ( 540 0 ) capacitor c=0.00440144f //x=39.925 //y=0
c1072 ( 539 0 ) capacitor c=0.104555f //x=38.85 //y=0
c1073 ( 538 0 ) capacitor c=0.00440095f //x=36.7 //y=0
c1074 ( 537 0 ) capacitor c=0.108565f //x=35.52 //y=0
c1075 ( 536 0 ) capacitor c=0.00440144f //x=31.785 //y=0
c1076 ( 535 0 ) capacitor c=0.107403f //x=30.71 //y=0
c1077 ( 534 0 ) capacitor c=0.00440144f //x=26.975 //y=0
c1078 ( 533 0 ) capacitor c=0.104579f //x=25.9 //y=0
c1079 ( 532 0 ) capacitor c=0.00440095f //x=23.68 //y=0
c1080 ( 530 0 ) capacitor c=0.108685f //x=22.57 //y=0
c1081 ( 529 0 ) capacitor c=0.00440144f //x=18.87 //y=0
c1082 ( 527 0 ) capacitor c=0.107329f //x=17.76 //y=0
c1083 ( 526 0 ) capacitor c=0.00440144f //x=14.06 //y=0
c1084 ( 524 0 ) capacitor c=0.104555f //x=12.95 //y=0
c1085 ( 523 0 ) capacitor c=0.00440095f //x=10.8 //y=0
c1086 ( 522 0 ) capacitor c=0.108565f //x=9.62 //y=0
c1087 ( 521 0 ) capacitor c=0.00440144f //x=5.885 //y=0
c1088 ( 520 0 ) capacitor c=0.108357f //x=4.81 //y=0
c1089 ( 519 0 ) capacitor c=0.00440144f //x=1.075 //y=0
c1090 ( 510 0 ) capacitor c=0.00583665f //x=89.29 //y=0.45
c1091 ( 507 0 ) capacitor c=0.00542558f //x=89.205 //y=0.535
c1092 ( 506 0 ) capacitor c=0.00479856f //x=88.805 //y=0.45
c1093 ( 503 0 ) capacitor c=0.00707849f //x=88.72 //y=0.535
c1094 ( 498 0 ) capacitor c=0.00588377f //x=88.32 //y=0.45
c1095 ( 495 0 ) capacitor c=0.0190475f //x=88.235 //y=0
c1096 ( 487 0 ) capacitor c=0.0749789f //x=87.52 //y=0
c1097 ( 479 0 ) capacitor c=0.0389876f //x=85.455 //y=0
c1098 ( 473 0 ) capacitor c=0.0716428f //x=84.19 //y=0
c1099 ( 467 0 ) capacitor c=0.0388276f //x=82.125 //y=0
c1100 ( 459 0 ) capacitor c=0.0717666f //x=80.86 //y=0
c1101 ( 451 0 ) capacitor c=0.0391432f //x=78.795 //y=0
c1102 ( 443 0 ) capacitor c=0.0718766f //x=77.53 //y=0
c1103 ( 435 0 ) capacitor c=0.0389171f //x=75.465 //y=0
c1104 ( 425 0 ) capacitor c=0.133607f //x=74.2 //y=0
c1105 ( 417 0 ) capacitor c=0.0339325f //x=70.55 //y=0
c1106 ( 407 0 ) capacitor c=0.133561f //x=69.39 //y=0
c1107 ( 399 0 ) capacitor c=0.0339325f //x=65.74 //y=0
c1108 ( 393 0 ) capacitor c=0.0718026f //x=64.58 //y=0
c1109 ( 387 0 ) capacitor c=0.0388888f //x=62.515 //y=0
c1110 ( 377 0 ) capacitor c=0.133561f //x=61.25 //y=0
c1111 ( 371 0 ) capacitor c=0.0339325f //x=57.6 //y=0
c1112 ( 361 0 ) capacitor c=0.133362f //x=56.44 //y=0
c1113 ( 355 0 ) capacitor c=0.0339325f //x=52.79 //y=0
c1114 ( 347 0 ) capacitor c=0.0718026f //x=51.63 //y=0
c1115 ( 339 0 ) capacitor c=0.0388888f //x=49.565 //y=0
c1116 ( 329 0 ) capacitor c=0.133362f //x=48.3 //y=0
c1117 ( 321 0 ) capacitor c=0.0339325f //x=44.65 //y=0
c1118 ( 311 0 ) capacitor c=0.133561f //x=43.49 //y=0
c1119 ( 303 0 ) capacitor c=0.0339325f //x=39.84 //y=0
c1120 ( 295 0 ) capacitor c=0.0718026f //x=38.68 //y=0
c1121 ( 287 0 ) capacitor c=0.0388888f //x=36.615 //y=0
c1122 ( 277 0 ) capacitor c=0.133561f //x=35.35 //y=0
c1123 ( 269 0 ) capacitor c=0.0339325f //x=31.7 //y=0
c1124 ( 259 0 ) capacitor c=0.133362f //x=30.54 //y=0
c1125 ( 251 0 ) capacitor c=0.0339325f //x=26.89 //y=0
c1126 ( 245 0 ) capacitor c=0.0718026f //x=25.73 //y=0
c1127 ( 239 0 ) capacitor c=0.0388888f //x=23.665 //y=0
c1128 ( 229 0 ) capacitor c=0.133362f //x=22.4 //y=0
c1129 ( 223 0 ) capacitor c=0.0339325f //x=18.75 //y=0
c1130 ( 213 0 ) capacitor c=0.133561f //x=17.59 //y=0
c1131 ( 207 0 ) capacitor c=0.0339325f //x=13.94 //y=0
c1132 ( 199 0 ) capacitor c=0.0718026f //x=12.78 //y=0
c1133 ( 191 0 ) capacitor c=0.0388888f //x=10.715 //y=0
c1134 ( 181 0 ) capacitor c=0.133526f //x=9.45 //y=0
c1135 ( 173 0 ) capacitor c=0.0339738f //x=5.8 //y=0
c1136 ( 163 0 ) capacitor c=0.131745f //x=4.64 //y=0
c1137 ( 158 0 ) capacitor c=0.178285f //x=0.74 //y=0
c1138 ( 155 0 ) capacitor c=0.0367385f //x=0.99 //y=0
c1139 ( 151 0 ) capacitor c=2.71089f //x=89.17 //y=0
r1140 (  573 574 ) resistor r=4.30252 //w=0.357 //l=0.12 //layer=li \
 //thickness=0.1 //x=89.17 //y=0 //x2=89.29 //y2=0
r1141 (  571 573 ) resistor r=13.0868 //w=0.357 //l=0.365 //layer=li \
 //thickness=0.1 //x=88.805 //y=0 //x2=89.17 //y2=0
r1142 (  570 571 ) resistor r=13.4454 //w=0.357 //l=0.375 //layer=li \
 //thickness=0.1 //x=88.43 //y=0 //x2=88.805 //y2=0
r1143 (  568 570 ) resistor r=3.94398 //w=0.357 //l=0.11 //layer=li \
 //thickness=0.1 //x=88.32 //y=0 //x2=88.43 //y2=0
r1144 (  511 602 ) resistor r=5.4201 //w=0.17 //l=0.085 //layer=li \
 //thickness=0.1 //x=89.29 //y=0.62 //x2=89.29 //y2=0.535
r1145 (  511 602 ) resistor r=41.4118 //w=0.187 //l=0.605 //layer=li \
 //thickness=0.1 //x=89.29 //y=0.62 //x2=89.29 //y2=1.225
r1146 (  510 602 ) resistor r=5.4201 //w=0.17 //l=0.085 //layer=li \
 //thickness=0.1 //x=89.29 //y=0.45 //x2=89.29 //y2=0.535
r1147 (  509 574 ) resistor r=5.03728 //w=0.34 //l=0.17 //layer=li \
 //thickness=0.1 //x=89.29 //y=0.17 //x2=89.29 //y2=0
r1148 (  509 510 ) resistor r=19.1658 //w=0.187 //l=0.28 //layer=li \
 //thickness=0.1 //x=89.29 //y=0.17 //x2=89.29 //y2=0.45
r1149 (  508 602 ) resistor r=5.4201 //w=0.17 //l=0.085 //layer=li \
 //thickness=0.1 //x=88.89 //y=0.535 //x2=88.805 //y2=0.535
r1150 (  507 602 ) resistor r=1.40859 //w=0.34 //l=0.085 //layer=li \
 //thickness=0.1 //x=89.205 //y=0.535 //x2=89.29 //y2=0.535
r1151 (  507 508 ) resistor r=21.5615 //w=0.187 //l=0.315 //layer=li \
 //thickness=0.1 //x=89.205 //y=0.535 //x2=88.89 //y2=0.535
r1152 (  506 602 ) resistor r=1.40859 //w=0.34 //l=0.085 //layer=li \
 //thickness=0.1 //x=88.805 //y=0.45 //x2=88.805 //y2=0.535
r1153 (  505 571 ) resistor r=5.03728 //w=0.34 //l=0.17 //layer=li \
 //thickness=0.1 //x=88.805 //y=0.17 //x2=88.805 //y2=0
r1154 (  505 506 ) resistor r=19.1658 //w=0.187 //l=0.28 //layer=li \
 //thickness=0.1 //x=88.805 //y=0.17 //x2=88.805 //y2=0.45
r1155 (  504 602 ) resistor r=1.40859 //w=0.34 //l=0.085 //layer=li \
 //thickness=0.1 //x=88.405 //y=0.535 //x2=88.32 //y2=0.535
r1156 (  503 602 ) resistor r=5.4201 //w=0.17 //l=0.085 //layer=li \
 //thickness=0.1 //x=88.72 //y=0.535 //x2=88.805 //y2=0.535
r1157 (  503 504 ) resistor r=21.5615 //w=0.187 //l=0.315 //layer=li \
 //thickness=0.1 //x=88.72 //y=0.535 //x2=88.405 //y2=0.535
r1158 (  499 602 ) resistor r=5.4201 //w=0.17 //l=0.085 //layer=li \
 //thickness=0.1 //x=88.32 //y=0.62 //x2=88.32 //y2=0.535
r1159 (  499 602 ) resistor r=41.4118 //w=0.187 //l=0.605 //layer=li \
 //thickness=0.1 //x=88.32 //y=0.62 //x2=88.32 //y2=1.225
r1160 (  498 602 ) resistor r=5.4201 //w=0.17 //l=0.085 //layer=li \
 //thickness=0.1 //x=88.32 //y=0.45 //x2=88.32 //y2=0.535
r1161 (  497 568 ) resistor r=5.03728 //w=0.34 //l=0.17 //layer=li \
 //thickness=0.1 //x=88.32 //y=0.17 //x2=88.32 //y2=0
r1162 (  497 498 ) resistor r=19.1658 //w=0.187 //l=0.28 //layer=li \
 //thickness=0.1 //x=88.32 //y=0.17 //x2=88.32 //y2=0.45
r1163 (  496 567 ) resistor r=5.4201 //w=0.34 //l=0.17 //layer=li \
 //thickness=0.1 //x=87.86 //y=0 //x2=87.69 //y2=0
r1164 (  495 568 ) resistor r=3.04762 //w=0.357 //l=0.085 //layer=li \
 //thickness=0.1 //x=88.235 //y=0 //x2=88.32 //y2=0
r1165 (  495 496 ) resistor r=13.4454 //w=0.357 //l=0.375 //layer=li \
 //thickness=0.1 //x=88.235 //y=0 //x2=87.86 //y2=0
r1166 (  490 492 ) resistor r=39.7983 //w=0.357 //l=1.11 //layer=li \
 //thickness=0.1 //x=85.84 //y=0 //x2=86.95 //y2=0
r1167 (  488 566 ) resistor r=2.94794 //w=0.34 //l=0.085 //layer=li \
 //thickness=0.1 //x=85.625 //y=0 //x2=85.54 //y2=0
r1168 (  488 490 ) resistor r=7.70868 //w=0.357 //l=0.215 //layer=li \
 //thickness=0.1 //x=85.625 //y=0 //x2=85.84 //y2=0
r1169 (  487 567 ) resistor r=5.4201 //w=0.34 //l=0.17 //layer=li \
 //thickness=0.1 //x=87.52 //y=0 //x2=87.69 //y2=0
r1170 (  487 492 ) resistor r=20.437 //w=0.357 //l=0.57 //layer=li \
 //thickness=0.1 //x=87.52 //y=0 //x2=86.95 //y2=0
r1171 (  483 566 ) resistor r=4.11603 //w=0.68 //l=0.17 //layer=li \
 //thickness=0.1 //x=85.54 //y=0.17 //x2=85.54 //y2=0
r1172 (  483 601 ) resistor r=53.7326 //w=0.187 //l=0.785 //layer=li \
 //thickness=0.1 //x=85.54 //y=0.17 //x2=85.54 //y2=0.955
r1173 (  480 565 ) resistor r=5.4201 //w=0.34 //l=0.17 //layer=li \
 //thickness=0.1 //x=84.53 //y=0 //x2=84.36 //y2=0
r1174 (  480 482 ) resistor r=7.17087 //w=0.357 //l=0.2 //layer=li \
 //thickness=0.1 //x=84.53 //y=0 //x2=84.73 //y2=0
r1175 (  479 566 ) resistor r=2.94794 //w=0.34 //l=0.085 //layer=li \
 //thickness=0.1 //x=85.455 //y=0 //x2=85.54 //y2=0
r1176 (  479 482 ) resistor r=25.9944 //w=0.357 //l=0.725 //layer=li \
 //thickness=0.1 //x=85.455 //y=0 //x2=84.73 //y2=0
r1177 (  474 564 ) resistor r=2.94794 //w=0.34 //l=0.085 //layer=li \
 //thickness=0.1 //x=82.295 //y=0 //x2=82.21 //y2=0
r1178 (  474 476 ) resistor r=34.2409 //w=0.357 //l=0.955 //layer=li \
 //thickness=0.1 //x=82.295 //y=0 //x2=83.25 //y2=0
r1179 (  473 565 ) resistor r=5.4201 //w=0.34 //l=0.17 //layer=li \
 //thickness=0.1 //x=84.19 //y=0 //x2=84.36 //y2=0
r1180 (  473 476 ) resistor r=33.7031 //w=0.357 //l=0.94 //layer=li \
 //thickness=0.1 //x=84.19 //y=0 //x2=83.25 //y2=0
r1181 (  469 564 ) resistor r=4.11603 //w=0.68 //l=0.17 //layer=li \
 //thickness=0.1 //x=82.21 //y=0.17 //x2=82.21 //y2=0
r1182 (  469 600 ) resistor r=53.7326 //w=0.187 //l=0.785 //layer=li \
 //thickness=0.1 //x=82.21 //y=0.17 //x2=82.21 //y2=0.955
r1183 (  468 562 ) resistor r=5.4201 //w=0.34 //l=0.17 //layer=li \
 //thickness=0.1 //x=81.2 //y=0 //x2=81.03 //y2=0
r1184 (  467 564 ) resistor r=2.94794 //w=0.34 //l=0.085 //layer=li \
 //thickness=0.1 //x=82.125 //y=0 //x2=82.21 //y2=0
r1185 (  467 468 ) resistor r=33.1653 //w=0.357 //l=0.925 //layer=li \
 //thickness=0.1 //x=82.125 //y=0 //x2=81.2 //y2=0
r1186 (  462 464 ) resistor r=39.7983 //w=0.357 //l=1.11 //layer=li \
 //thickness=0.1 //x=79.55 //y=0 //x2=80.66 //y2=0
r1187 (  460 561 ) resistor r=2.94794 //w=0.34 //l=0.085 //layer=li \
 //thickness=0.1 //x=78.965 //y=0 //x2=78.88 //y2=0
r1188 (  460 462 ) resistor r=20.9748 //w=0.357 //l=0.585 //layer=li \
 //thickness=0.1 //x=78.965 //y=0 //x2=79.55 //y2=0
r1189 (  459 562 ) resistor r=5.4201 //w=0.34 //l=0.17 //layer=li \
 //thickness=0.1 //x=80.86 //y=0 //x2=81.03 //y2=0
r1190 (  459 464 ) resistor r=7.17087 //w=0.357 //l=0.2 //layer=li \
 //thickness=0.1 //x=80.86 //y=0 //x2=80.66 //y2=0
r1191 (  455 561 ) resistor r=4.11603 //w=0.68 //l=0.17 //layer=li \
 //thickness=0.1 //x=78.88 //y=0.17 //x2=78.88 //y2=0
r1192 (  455 599 ) resistor r=53.7326 //w=0.187 //l=0.785 //layer=li \
 //thickness=0.1 //x=78.88 //y=0.17 //x2=78.88 //y2=0.955
r1193 (  452 560 ) resistor r=5.4201 //w=0.34 //l=0.17 //layer=li \
 //thickness=0.1 //x=77.87 //y=0 //x2=77.7 //y2=0
r1194 (  452 454 ) resistor r=20.437 //w=0.357 //l=0.57 //layer=li \
 //thickness=0.1 //x=77.87 //y=0 //x2=78.44 //y2=0
r1195 (  451 561 ) resistor r=2.94794 //w=0.34 //l=0.085 //layer=li \
 //thickness=0.1 //x=78.795 //y=0 //x2=78.88 //y2=0
r1196 (  451 454 ) resistor r=12.7283 //w=0.357 //l=0.355 //layer=li \
 //thickness=0.1 //x=78.795 //y=0 //x2=78.44 //y2=0
r1197 (  446 448 ) resistor r=39.7983 //w=0.357 //l=1.11 //layer=li \
 //thickness=0.1 //x=75.85 //y=0 //x2=76.96 //y2=0
r1198 (  444 559 ) resistor r=2.94794 //w=0.34 //l=0.085 //layer=li \
 //thickness=0.1 //x=75.635 //y=0 //x2=75.55 //y2=0
r1199 (  444 446 ) resistor r=7.70868 //w=0.357 //l=0.215 //layer=li \
 //thickness=0.1 //x=75.635 //y=0 //x2=75.85 //y2=0
r1200 (  443 560 ) resistor r=5.4201 //w=0.34 //l=0.17 //layer=li \
 //thickness=0.1 //x=77.53 //y=0 //x2=77.7 //y2=0
r1201 (  443 448 ) resistor r=20.437 //w=0.357 //l=0.57 //layer=li \
 //thickness=0.1 //x=77.53 //y=0 //x2=76.96 //y2=0
r1202 (  439 559 ) resistor r=4.11603 //w=0.68 //l=0.17 //layer=li \
 //thickness=0.1 //x=75.55 //y=0.17 //x2=75.55 //y2=0
r1203 (  439 598 ) resistor r=53.7326 //w=0.187 //l=0.785 //layer=li \
 //thickness=0.1 //x=75.55 //y=0.17 //x2=75.55 //y2=0.955
r1204 (  436 558 ) resistor r=5.4201 //w=0.34 //l=0.17 //layer=li \
 //thickness=0.1 //x=74.54 //y=0 //x2=74.37 //y2=0
r1205 (  436 438 ) resistor r=7.17087 //w=0.357 //l=0.2 //layer=li \
 //thickness=0.1 //x=74.54 //y=0 //x2=74.74 //y2=0
r1206 (  435 559 ) resistor r=2.94794 //w=0.34 //l=0.085 //layer=li \
 //thickness=0.1 //x=75.465 //y=0 //x2=75.55 //y2=0
r1207 (  435 438 ) resistor r=25.9944 //w=0.357 //l=0.725 //layer=li \
 //thickness=0.1 //x=75.465 //y=0 //x2=74.74 //y2=0
r1208 (  430 432 ) resistor r=39.7983 //w=0.357 //l=1.11 //layer=li \
 //thickness=0.1 //x=72.15 //y=0 //x2=73.26 //y2=0
r1209 (  428 430 ) resistor r=39.7983 //w=0.357 //l=1.11 //layer=li \
 //thickness=0.1 //x=71.04 //y=0 //x2=72.15 //y2=0
r1210 (  426 557 ) resistor r=2.94794 //w=0.34 //l=0.085 //layer=li \
 //thickness=0.1 //x=70.72 //y=0 //x2=70.635 //y2=0
r1211 (  426 428 ) resistor r=11.4734 //w=0.357 //l=0.32 //layer=li \
 //thickness=0.1 //x=70.72 //y=0 //x2=71.04 //y2=0
r1212 (  425 558 ) resistor r=5.4201 //w=0.34 //l=0.17 //layer=li \
 //thickness=0.1 //x=74.2 //y=0 //x2=74.37 //y2=0
r1213 (  425 432 ) resistor r=33.7031 //w=0.357 //l=0.94 //layer=li \
 //thickness=0.1 //x=74.2 //y=0 //x2=73.26 //y2=0
r1214 (  421 557 ) resistor r=4.11603 //w=0.68 //l=0.17 //layer=li \
 //thickness=0.1 //x=70.635 //y=0.17 //x2=70.635 //y2=0
r1215 (  421 597 ) resistor r=54.4171 //w=0.187 //l=0.795 //layer=li \
 //thickness=0.1 //x=70.635 //y=0.17 //x2=70.635 //y2=0.965
r1216 (  418 556 ) resistor r=5.4201 //w=0.34 //l=0.17 //layer=li \
 //thickness=0.1 //x=69.73 //y=0 //x2=69.56 //y2=0
r1217 (  418 420 ) resistor r=7.17087 //w=0.357 //l=0.2 //layer=li \
 //thickness=0.1 //x=69.73 //y=0 //x2=69.93 //y2=0
r1218 (  417 557 ) resistor r=2.94794 //w=0.34 //l=0.085 //layer=li \
 //thickness=0.1 //x=70.55 //y=0 //x2=70.635 //y2=0
r1219 (  417 420 ) resistor r=22.2297 //w=0.357 //l=0.62 //layer=li \
 //thickness=0.1 //x=70.55 //y=0 //x2=69.93 //y2=0
r1220 (  412 414 ) resistor r=39.7983 //w=0.357 //l=1.11 //layer=li \
 //thickness=0.1 //x=67.34 //y=0 //x2=68.45 //y2=0
r1221 (  410 412 ) resistor r=39.7983 //w=0.357 //l=1.11 //layer=li \
 //thickness=0.1 //x=66.23 //y=0 //x2=67.34 //y2=0
r1222 (  408 555 ) resistor r=2.94794 //w=0.34 //l=0.085 //layer=li \
 //thickness=0.1 //x=65.91 //y=0 //x2=65.825 //y2=0
r1223 (  408 410 ) resistor r=11.4734 //w=0.357 //l=0.32 //layer=li \
 //thickness=0.1 //x=65.91 //y=0 //x2=66.23 //y2=0
r1224 (  407 556 ) resistor r=5.4201 //w=0.34 //l=0.17 //layer=li \
 //thickness=0.1 //x=69.39 //y=0 //x2=69.56 //y2=0
r1225 (  407 414 ) resistor r=33.7031 //w=0.357 //l=0.94 //layer=li \
 //thickness=0.1 //x=69.39 //y=0 //x2=68.45 //y2=0
r1226 (  403 555 ) resistor r=4.11603 //w=0.68 //l=0.17 //layer=li \
 //thickness=0.1 //x=65.825 //y=0.17 //x2=65.825 //y2=0
r1227 (  403 596 ) resistor r=54.4171 //w=0.187 //l=0.795 //layer=li \
 //thickness=0.1 //x=65.825 //y=0.17 //x2=65.825 //y2=0.965
r1228 (  400 554 ) resistor r=5.4201 //w=0.34 //l=0.17 //layer=li \
 //thickness=0.1 //x=64.92 //y=0 //x2=64.75 //y2=0
r1229 (  400 402 ) resistor r=7.17087 //w=0.357 //l=0.2 //layer=li \
 //thickness=0.1 //x=64.92 //y=0 //x2=65.12 //y2=0
r1230 (  399 555 ) resistor r=2.94794 //w=0.34 //l=0.085 //layer=li \
 //thickness=0.1 //x=65.74 //y=0 //x2=65.825 //y2=0
r1231 (  399 402 ) resistor r=22.2297 //w=0.357 //l=0.62 //layer=li \
 //thickness=0.1 //x=65.74 //y=0 //x2=65.12 //y2=0
r1232 (  394 553 ) resistor r=2.94794 //w=0.34 //l=0.085 //layer=li \
 //thickness=0.1 //x=62.685 //y=0 //x2=62.6 //y2=0
r1233 (  394 396 ) resistor r=34.2409 //w=0.357 //l=0.955 //layer=li \
 //thickness=0.1 //x=62.685 //y=0 //x2=63.64 //y2=0
r1234 (  393 554 ) resistor r=5.4201 //w=0.34 //l=0.17 //layer=li \
 //thickness=0.1 //x=64.58 //y=0 //x2=64.75 //y2=0
r1235 (  393 396 ) resistor r=33.7031 //w=0.357 //l=0.94 //layer=li \
 //thickness=0.1 //x=64.58 //y=0 //x2=63.64 //y2=0
r1236 (  389 553 ) resistor r=4.11603 //w=0.68 //l=0.17 //layer=li \
 //thickness=0.1 //x=62.6 //y=0.17 //x2=62.6 //y2=0
r1237 (  389 595 ) resistor r=53.7326 //w=0.187 //l=0.785 //layer=li \
 //thickness=0.1 //x=62.6 //y=0.17 //x2=62.6 //y2=0.955
r1238 (  388 551 ) resistor r=5.4201 //w=0.34 //l=0.17 //layer=li \
 //thickness=0.1 //x=61.59 //y=0 //x2=61.42 //y2=0
r1239 (  387 553 ) resistor r=2.94794 //w=0.34 //l=0.085 //layer=li \
 //thickness=0.1 //x=62.515 //y=0 //x2=62.6 //y2=0
r1240 (  387 388 ) resistor r=33.1653 //w=0.357 //l=0.925 //layer=li \
 //thickness=0.1 //x=62.515 //y=0 //x2=61.59 //y2=0
r1241 (  382 384 ) resistor r=39.7983 //w=0.357 //l=1.11 //layer=li \
 //thickness=0.1 //x=59.94 //y=0 //x2=61.05 //y2=0
r1242 (  380 382 ) resistor r=39.7983 //w=0.357 //l=1.11 //layer=li \
 //thickness=0.1 //x=58.83 //y=0 //x2=59.94 //y2=0
r1243 (  378 550 ) resistor r=2.94794 //w=0.34 //l=0.085 //layer=li \
 //thickness=0.1 //x=57.77 //y=0 //x2=57.685 //y2=0
r1244 (  378 380 ) resistor r=38.0056 //w=0.357 //l=1.06 //layer=li \
 //thickness=0.1 //x=57.77 //y=0 //x2=58.83 //y2=0
r1245 (  377 551 ) resistor r=5.4201 //w=0.34 //l=0.17 //layer=li \
 //thickness=0.1 //x=61.25 //y=0 //x2=61.42 //y2=0
r1246 (  377 384 ) resistor r=7.17087 //w=0.357 //l=0.2 //layer=li \
 //thickness=0.1 //x=61.25 //y=0 //x2=61.05 //y2=0
r1247 (  373 550 ) resistor r=4.11603 //w=0.68 //l=0.17 //layer=li \
 //thickness=0.1 //x=57.685 //y=0.17 //x2=57.685 //y2=0
r1248 (  373 594 ) resistor r=54.4171 //w=0.187 //l=0.795 //layer=li \
 //thickness=0.1 //x=57.685 //y=0.17 //x2=57.685 //y2=0.965
r1249 (  372 548 ) resistor r=5.4201 //w=0.34 //l=0.17 //layer=li \
 //thickness=0.1 //x=56.78 //y=0 //x2=56.61 //y2=0
r1250 (  371 550 ) resistor r=2.94794 //w=0.34 //l=0.085 //layer=li \
 //thickness=0.1 //x=57.6 //y=0 //x2=57.685 //y2=0
r1251 (  371 372 ) resistor r=29.4006 //w=0.357 //l=0.82 //layer=li \
 //thickness=0.1 //x=57.6 //y=0 //x2=56.78 //y2=0
r1252 (  366 368 ) resistor r=39.7983 //w=0.357 //l=1.11 //layer=li \
 //thickness=0.1 //x=55.13 //y=0 //x2=56.24 //y2=0
r1253 (  364 366 ) resistor r=39.7983 //w=0.357 //l=1.11 //layer=li \
 //thickness=0.1 //x=54.02 //y=0 //x2=55.13 //y2=0
r1254 (  362 547 ) resistor r=2.94794 //w=0.34 //l=0.085 //layer=li \
 //thickness=0.1 //x=52.96 //y=0 //x2=52.875 //y2=0
r1255 (  362 364 ) resistor r=38.0056 //w=0.357 //l=1.06 //layer=li \
 //thickness=0.1 //x=52.96 //y=0 //x2=54.02 //y2=0
r1256 (  361 548 ) resistor r=5.4201 //w=0.34 //l=0.17 //layer=li \
 //thickness=0.1 //x=56.44 //y=0 //x2=56.61 //y2=0
r1257 (  361 368 ) resistor r=7.17087 //w=0.357 //l=0.2 //layer=li \
 //thickness=0.1 //x=56.44 //y=0 //x2=56.24 //y2=0
r1258 (  357 547 ) resistor r=4.11603 //w=0.68 //l=0.17 //layer=li \
 //thickness=0.1 //x=52.875 //y=0.17 //x2=52.875 //y2=0
r1259 (  357 593 ) resistor r=54.4171 //w=0.187 //l=0.795 //layer=li \
 //thickness=0.1 //x=52.875 //y=0.17 //x2=52.875 //y2=0.965
r1260 (  356 545 ) resistor r=5.4201 //w=0.34 //l=0.17 //layer=li \
 //thickness=0.1 //x=51.97 //y=0 //x2=51.8 //y2=0
r1261 (  355 547 ) resistor r=2.94794 //w=0.34 //l=0.085 //layer=li \
 //thickness=0.1 //x=52.79 //y=0 //x2=52.875 //y2=0
r1262 (  355 356 ) resistor r=29.4006 //w=0.357 //l=0.82 //layer=li \
 //thickness=0.1 //x=52.79 //y=0 //x2=51.97 //y2=0
r1263 (  350 352 ) resistor r=39.7983 //w=0.357 //l=1.11 //layer=li \
 //thickness=0.1 //x=50.32 //y=0 //x2=51.43 //y2=0
r1264 (  348 544 ) resistor r=2.94794 //w=0.34 //l=0.085 //layer=li \
 //thickness=0.1 //x=49.735 //y=0 //x2=49.65 //y2=0
r1265 (  348 350 ) resistor r=20.9748 //w=0.357 //l=0.585 //layer=li \
 //thickness=0.1 //x=49.735 //y=0 //x2=50.32 //y2=0
r1266 (  347 545 ) resistor r=5.4201 //w=0.34 //l=0.17 //layer=li \
 //thickness=0.1 //x=51.63 //y=0 //x2=51.8 //y2=0
r1267 (  347 352 ) resistor r=7.17087 //w=0.357 //l=0.2 //layer=li \
 //thickness=0.1 //x=51.63 //y=0 //x2=51.43 //y2=0
r1268 (  343 544 ) resistor r=4.11603 //w=0.68 //l=0.17 //layer=li \
 //thickness=0.1 //x=49.65 //y=0.17 //x2=49.65 //y2=0
r1269 (  343 592 ) resistor r=53.7326 //w=0.187 //l=0.785 //layer=li \
 //thickness=0.1 //x=49.65 //y=0.17 //x2=49.65 //y2=0.955
r1270 (  340 543 ) resistor r=5.4201 //w=0.34 //l=0.17 //layer=li \
 //thickness=0.1 //x=48.64 //y=0 //x2=48.47 //y2=0
r1271 (  340 342 ) resistor r=20.437 //w=0.357 //l=0.57 //layer=li \
 //thickness=0.1 //x=48.64 //y=0 //x2=49.21 //y2=0
r1272 (  339 544 ) resistor r=2.94794 //w=0.34 //l=0.085 //layer=li \
 //thickness=0.1 //x=49.565 //y=0 //x2=49.65 //y2=0
r1273 (  339 342 ) resistor r=12.7283 //w=0.357 //l=0.355 //layer=li \
 //thickness=0.1 //x=49.565 //y=0 //x2=49.21 //y2=0
r1274 (  334 336 ) resistor r=39.7983 //w=0.357 //l=1.11 //layer=li \
 //thickness=0.1 //x=46.62 //y=0 //x2=47.73 //y2=0
r1275 (  332 334 ) resistor r=39.7983 //w=0.357 //l=1.11 //layer=li \
 //thickness=0.1 //x=45.51 //y=0 //x2=46.62 //y2=0
r1276 (  330 542 ) resistor r=2.94794 //w=0.34 //l=0.085 //layer=li \
 //thickness=0.1 //x=44.82 //y=0 //x2=44.735 //y2=0
r1277 (  330 332 ) resistor r=24.7395 //w=0.357 //l=0.69 //layer=li \
 //thickness=0.1 //x=44.82 //y=0 //x2=45.51 //y2=0
r1278 (  329 543 ) resistor r=5.4201 //w=0.34 //l=0.17 //layer=li \
 //thickness=0.1 //x=48.3 //y=0 //x2=48.47 //y2=0
r1279 (  329 336 ) resistor r=20.437 //w=0.357 //l=0.57 //layer=li \
 //thickness=0.1 //x=48.3 //y=0 //x2=47.73 //y2=0
r1280 (  325 542 ) resistor r=4.11603 //w=0.68 //l=0.17 //layer=li \
 //thickness=0.1 //x=44.735 //y=0.17 //x2=44.735 //y2=0
r1281 (  325 591 ) resistor r=54.4171 //w=0.187 //l=0.795 //layer=li \
 //thickness=0.1 //x=44.735 //y=0.17 //x2=44.735 //y2=0.965
r1282 (  322 541 ) resistor r=5.4201 //w=0.34 //l=0.17 //layer=li \
 //thickness=0.1 //x=43.83 //y=0 //x2=43.66 //y2=0
r1283 (  322 324 ) resistor r=20.437 //w=0.357 //l=0.57 //layer=li \
 //thickness=0.1 //x=43.83 //y=0 //x2=44.4 //y2=0
r1284 (  321 542 ) resistor r=2.94794 //w=0.34 //l=0.085 //layer=li \
 //thickness=0.1 //x=44.65 //y=0 //x2=44.735 //y2=0
r1285 (  321 324 ) resistor r=8.96359 //w=0.357 //l=0.25 //layer=li \
 //thickness=0.1 //x=44.65 //y=0 //x2=44.4 //y2=0
r1286 (  316 318 ) resistor r=39.7983 //w=0.357 //l=1.11 //layer=li \
 //thickness=0.1 //x=41.81 //y=0 //x2=42.92 //y2=0
r1287 (  314 316 ) resistor r=39.7983 //w=0.357 //l=1.11 //layer=li \
 //thickness=0.1 //x=40.7 //y=0 //x2=41.81 //y2=0
r1288 (  312 540 ) resistor r=2.94794 //w=0.34 //l=0.085 //layer=li \
 //thickness=0.1 //x=40.01 //y=0 //x2=39.925 //y2=0
r1289 (  312 314 ) resistor r=24.7395 //w=0.357 //l=0.69 //layer=li \
 //thickness=0.1 //x=40.01 //y=0 //x2=40.7 //y2=0
r1290 (  311 541 ) resistor r=5.4201 //w=0.34 //l=0.17 //layer=li \
 //thickness=0.1 //x=43.49 //y=0 //x2=43.66 //y2=0
r1291 (  311 318 ) resistor r=20.437 //w=0.357 //l=0.57 //layer=li \
 //thickness=0.1 //x=43.49 //y=0 //x2=42.92 //y2=0
r1292 (  307 540 ) resistor r=4.11603 //w=0.68 //l=0.17 //layer=li \
 //thickness=0.1 //x=39.925 //y=0.17 //x2=39.925 //y2=0
r1293 (  307 590 ) resistor r=54.4171 //w=0.187 //l=0.795 //layer=li \
 //thickness=0.1 //x=39.925 //y=0.17 //x2=39.925 //y2=0.965
r1294 (  304 539 ) resistor r=5.4201 //w=0.34 //l=0.17 //layer=li \
 //thickness=0.1 //x=39.02 //y=0 //x2=38.85 //y2=0
r1295 (  304 306 ) resistor r=20.437 //w=0.357 //l=0.57 //layer=li \
 //thickness=0.1 //x=39.02 //y=0 //x2=39.59 //y2=0
r1296 (  303 540 ) resistor r=2.94794 //w=0.34 //l=0.085 //layer=li \
 //thickness=0.1 //x=39.84 //y=0 //x2=39.925 //y2=0
r1297 (  303 306 ) resistor r=8.96359 //w=0.357 //l=0.25 //layer=li \
 //thickness=0.1 //x=39.84 //y=0 //x2=39.59 //y2=0
r1298 (  298 300 ) resistor r=39.7983 //w=0.357 //l=1.11 //layer=li \
 //thickness=0.1 //x=37 //y=0 //x2=38.11 //y2=0
r1299 (  296 538 ) resistor r=2.94794 //w=0.34 //l=0.085 //layer=li \
 //thickness=0.1 //x=36.785 //y=0 //x2=36.7 //y2=0
r1300 (  296 298 ) resistor r=7.70868 //w=0.357 //l=0.215 //layer=li \
 //thickness=0.1 //x=36.785 //y=0 //x2=37 //y2=0
r1301 (  295 539 ) resistor r=5.4201 //w=0.34 //l=0.17 //layer=li \
 //thickness=0.1 //x=38.68 //y=0 //x2=38.85 //y2=0
r1302 (  295 300 ) resistor r=20.437 //w=0.357 //l=0.57 //layer=li \
 //thickness=0.1 //x=38.68 //y=0 //x2=38.11 //y2=0
r1303 (  291 538 ) resistor r=4.11603 //w=0.68 //l=0.17 //layer=li \
 //thickness=0.1 //x=36.7 //y=0.17 //x2=36.7 //y2=0
r1304 (  291 589 ) resistor r=53.7326 //w=0.187 //l=0.785 //layer=li \
 //thickness=0.1 //x=36.7 //y=0.17 //x2=36.7 //y2=0.955
r1305 (  288 537 ) resistor r=5.4201 //w=0.34 //l=0.17 //layer=li \
 //thickness=0.1 //x=35.69 //y=0 //x2=35.52 //y2=0
r1306 (  288 290 ) resistor r=7.17087 //w=0.357 //l=0.2 //layer=li \
 //thickness=0.1 //x=35.69 //y=0 //x2=35.89 //y2=0
r1307 (  287 538 ) resistor r=2.94794 //w=0.34 //l=0.085 //layer=li \
 //thickness=0.1 //x=36.615 //y=0 //x2=36.7 //y2=0
r1308 (  287 290 ) resistor r=25.9944 //w=0.357 //l=0.725 //layer=li \
 //thickness=0.1 //x=36.615 //y=0 //x2=35.89 //y2=0
r1309 (  282 284 ) resistor r=39.7983 //w=0.357 //l=1.11 //layer=li \
 //thickness=0.1 //x=33.3 //y=0 //x2=34.41 //y2=0
r1310 (  280 282 ) resistor r=39.7983 //w=0.357 //l=1.11 //layer=li \
 //thickness=0.1 //x=32.19 //y=0 //x2=33.3 //y2=0
r1311 (  278 536 ) resistor r=2.94794 //w=0.34 //l=0.085 //layer=li \
 //thickness=0.1 //x=31.87 //y=0 //x2=31.785 //y2=0
r1312 (  278 280 ) resistor r=11.4734 //w=0.357 //l=0.32 //layer=li \
 //thickness=0.1 //x=31.87 //y=0 //x2=32.19 //y2=0
r1313 (  277 537 ) resistor r=5.4201 //w=0.34 //l=0.17 //layer=li \
 //thickness=0.1 //x=35.35 //y=0 //x2=35.52 //y2=0
r1314 (  277 284 ) resistor r=33.7031 //w=0.357 //l=0.94 //layer=li \
 //thickness=0.1 //x=35.35 //y=0 //x2=34.41 //y2=0
r1315 (  273 536 ) resistor r=4.11603 //w=0.68 //l=0.17 //layer=li \
 //thickness=0.1 //x=31.785 //y=0.17 //x2=31.785 //y2=0
r1316 (  273 588 ) resistor r=54.4171 //w=0.187 //l=0.795 //layer=li \
 //thickness=0.1 //x=31.785 //y=0.17 //x2=31.785 //y2=0.965
r1317 (  270 535 ) resistor r=5.4201 //w=0.34 //l=0.17 //layer=li \
 //thickness=0.1 //x=30.88 //y=0 //x2=30.71 //y2=0
r1318 (  270 272 ) resistor r=7.17087 //w=0.357 //l=0.2 //layer=li \
 //thickness=0.1 //x=30.88 //y=0 //x2=31.08 //y2=0
r1319 (  269 536 ) resistor r=2.94794 //w=0.34 //l=0.085 //layer=li \
 //thickness=0.1 //x=31.7 //y=0 //x2=31.785 //y2=0
r1320 (  269 272 ) resistor r=22.2297 //w=0.357 //l=0.62 //layer=li \
 //thickness=0.1 //x=31.7 //y=0 //x2=31.08 //y2=0
r1321 (  264 266 ) resistor r=39.7983 //w=0.357 //l=1.11 //layer=li \
 //thickness=0.1 //x=28.49 //y=0 //x2=29.6 //y2=0
r1322 (  262 264 ) resistor r=39.7983 //w=0.357 //l=1.11 //layer=li \
 //thickness=0.1 //x=27.38 //y=0 //x2=28.49 //y2=0
r1323 (  260 534 ) resistor r=2.94794 //w=0.34 //l=0.085 //layer=li \
 //thickness=0.1 //x=27.06 //y=0 //x2=26.975 //y2=0
r1324 (  260 262 ) resistor r=11.4734 //w=0.357 //l=0.32 //layer=li \
 //thickness=0.1 //x=27.06 //y=0 //x2=27.38 //y2=0
r1325 (  259 535 ) resistor r=5.4201 //w=0.34 //l=0.17 //layer=li \
 //thickness=0.1 //x=30.54 //y=0 //x2=30.71 //y2=0
r1326 (  259 266 ) resistor r=33.7031 //w=0.357 //l=0.94 //layer=li \
 //thickness=0.1 //x=30.54 //y=0 //x2=29.6 //y2=0
r1327 (  255 534 ) resistor r=4.11603 //w=0.68 //l=0.17 //layer=li \