// File: TMRDFFRNQX1.spi.TMRDFFRNQX1.pxi
// Created: Tue Oct 15 15:52:17 2024
// 
simulator lang=spectre
x_PM_TMRDFFRNQX1\%GND ( GND N_GND_c_24_p N_GND_c_96_p N_GND_c_1_p N_GND_c_25_p \
 N_GND_c_26_p N_GND_c_72_p N_GND_c_33_p N_GND_c_40_p N_GND_c_48_p N_GND_c_55_p \
 N_GND_c_75_p N_GND_c_82_p N_GND_c_106_p N_GND_c_113_p N_GND_c_191_p \
 N_GND_c_198_p N_GND_c_151_p N_GND_c_158_p N_GND_c_121_p N_GND_c_128_p \
 N_GND_c_135_p N_GND_c_142_p N_GND_c_161_p N_GND_c_168_p N_GND_c_174_p \
 N_GND_c_181_p N_GND_c_294_p N_GND_c_295_p N_GND_c_228_p N_GND_c_235_p \
 N_GND_c_304_p N_GND_c_305_p N_GND_c_306_p N_GND_c_307_p N_GND_c_238_p \
 N_GND_c_245_p N_GND_c_343_p N_GND_c_350_p N_GND_c_389_p N_GND_c_396_p \
 N_GND_c_399_p N_GND_c_405_p N_GND_c_458_p N_GND_c_464_p N_GND_c_1009_p \
 N_GND_c_495_p N_GND_c_503_p N_GND_c_2_p N_GND_c_3_p N_GND_c_4_p N_GND_c_5_p \
 N_GND_c_6_p N_GND_c_7_p N_GND_c_8_p N_GND_c_9_p N_GND_c_10_p N_GND_c_11_p \
 N_GND_c_12_p N_GND_c_13_p N_GND_c_14_p N_GND_c_15_p N_GND_c_16_p N_GND_c_17_p \
 N_GND_c_18_p N_GND_c_19_p N_GND_c_20_p N_GND_c_21_p N_GND_c_22_p N_GND_c_23_p \
 N_GND_M0_noxref_d N_GND_M3_noxref_d N_GND_M6_noxref_d N_GND_M8_noxref_d \
 N_GND_M11_noxref_d N_GND_M14_noxref_d N_GND_M16_noxref_d N_GND_M19_noxref_d \
 N_GND_M22_noxref_d N_GND_M24_noxref_d N_GND_M27_noxref_d N_GND_M30_noxref_d \
 N_GND_M32_noxref_d N_GND_M35_noxref_d N_GND_M38_noxref_d N_GND_M40_noxref_d \
 N_GND_M43_noxref_d N_GND_M46_noxref_d N_GND_M48_noxref_d N_GND_M50_noxref_d \
 N_GND_M52_noxref_d N_GND_M54_noxref_s )  PM_TMRDFFRNQX1\%GND
x_PM_TMRDFFRNQX1\%VDD ( VDD N_VDD_c_1050_p N_VDD_c_1026_n N_VDD_c_1124_p \
 N_VDD_c_1125_p N_VDD_c_1068_p N_VDD_c_1135_p N_VDD_c_1515_p N_VDD_c_1051_p \
 N_VDD_c_1052_p N_VDD_c_1058_p N_VDD_c_1062_p N_VDD_c_1518_p N_VDD_c_1066_p \
 N_VDD_c_1094_p N_VDD_c_1520_p N_VDD_c_1521_p N_VDD_c_1106_p N_VDD_c_1191_p \
 N_VDD_c_1197_p N_VDD_c_1201_p N_VDD_c_1533_p N_VDD_c_1148_p N_VDD_c_1206_p \
 N_VDD_c_1212_p N_VDD_c_1216_p N_VDD_c_1536_p N_VDD_c_1220_p N_VDD_c_1237_p \
 N_VDD_c_1538_p N_VDD_c_1539_p N_VDD_c_1350_p N_VDD_c_1351_p N_VDD_c_1294_p \
 N_VDD_c_1361_p N_VDD_c_1551_p N_VDD_c_1277_p N_VDD_c_1278_p N_VDD_c_1284_p \
 N_VDD_c_1288_p N_VDD_c_1554_p N_VDD_c_1292_p N_VDD_c_1320_p N_VDD_c_1556_p \
 N_VDD_c_1557_p N_VDD_c_1332_p N_VDD_c_1449_p N_VDD_c_1455_p N_VDD_c_1459_p \
 N_VDD_c_1569_p N_VDD_c_1374_p N_VDD_c_1399_p N_VDD_c_1405_p N_VDD_c_1409_p \
 N_VDD_c_1572_p N_VDD_c_1413_p N_VDD_c_1473_p N_VDD_c_1574_p N_VDD_c_1575_p \
 N_VDD_c_1576_p N_VDD_c_1631_p N_VDD_c_1647_p N_VDD_c_1586_p N_VDD_c_1587_p \
 N_VDD_c_1588_p N_VDD_c_1509_p N_VDD_c_1723_p N_VDD_c_1589_p N_VDD_c_1590_p \
 N_VDD_c_1591_p N_VDD_c_1806_p N_VDD_c_1592_p N_VDD_c_1593_p N_VDD_c_1594_p \
 N_VDD_c_1635_p N_VDD_c_1727_p N_VDD_c_1741_p N_VDD_c_1742_p N_VDD_c_1664_p \
 N_VDD_c_1731_p N_VDD_c_1790_p N_VDD_c_1750_p N_VDD_c_1751_p N_VDD_c_1752_p \
 N_VDD_c_1815_p N_VDD_c_1860_p N_VDD_c_1855_p N_VDD_c_2013_p N_VDD_c_2035_p \
 N_VDD_c_1935_p N_VDD_c_1987_p N_VDD_c_2125_p N_VDD_c_2126_p N_VDD_c_1027_n \
 N_VDD_c_1028_n N_VDD_c_1029_n N_VDD_c_1030_n N_VDD_c_1031_n N_VDD_c_1032_n \
 N_VDD_c_1033_n N_VDD_c_1034_n N_VDD_c_1035_n N_VDD_c_1036_n N_VDD_c_1037_n \
 N_VDD_c_1038_n N_VDD_c_1039_n N_VDD_c_1040_n N_VDD_c_1041_n N_VDD_c_1042_n \
 N_VDD_c_1043_n N_VDD_c_1044_n N_VDD_c_1045_n N_VDD_c_1046_n N_VDD_c_1047_n \
 N_VDD_c_1048_n N_VDD_M55_noxref_s N_VDD_M56_noxref_d N_VDD_M58_noxref_d \
 N_VDD_M60_noxref_d N_VDD_M61_noxref_s N_VDD_M62_noxref_d N_VDD_M64_noxref_d \
 N_VDD_M66_noxref_d N_VDD_M67_noxref_s N_VDD_M68_noxref_d N_VDD_M70_noxref_d \
 N_VDD_M71_noxref_s N_VDD_M72_noxref_d N_VDD_M74_noxref_d N_VDD_M76_noxref_d \
 N_VDD_M77_noxref_s N_VDD_M78_noxref_d N_VDD_M80_noxref_d N_VDD_M82_noxref_d \
 N_VDD_M83_noxref_s N_VDD_M84_noxref_d N_VDD_M86_noxref_d N_VDD_M87_noxref_s \
 N_VDD_M88_noxref_d N_VDD_M90_noxref_d N_VDD_M92_noxref_d N_VDD_M93_noxref_s \
 N_VDD_M94_noxref_d N_VDD_M96_noxref_d N_VDD_M98_noxref_d N_VDD_M99_noxref_s \
 N_VDD_M100_noxref_d N_VDD_M102_noxref_d N_VDD_M103_noxref_s \
 N_VDD_M104_noxref_d N_VDD_M106_noxref_d N_VDD_M108_noxref_d \
 N_VDD_M109_noxref_s N_VDD_M110_noxref_d N_VDD_M112_noxref_d \
 N_VDD_M114_noxref_d N_VDD_M115_noxref_s N_VDD_M116_noxref_d \
 N_VDD_M118_noxref_d N_VDD_M119_noxref_s N_VDD_M120_noxref_d \
 N_VDD_M122_noxref_d N_VDD_M124_noxref_d N_VDD_M125_noxref_s \
 N_VDD_M126_noxref_d N_VDD_M128_noxref_d N_VDD_M130_noxref_d \
 N_VDD_M131_noxref_s N_VDD_M132_noxref_d N_VDD_M134_noxref_d \
 N_VDD_M135_noxref_s N_VDD_M136_noxref_d N_VDD_M138_noxref_d \
 N_VDD_M140_noxref_d N_VDD_M141_noxref_s N_VDD_M142_noxref_d \
 N_VDD_M144_noxref_d N_VDD_M146_noxref_d N_VDD_M147_noxref_s \
 N_VDD_M148_noxref_d N_VDD_M150_noxref_d N_VDD_M151_noxref_s \
 N_VDD_M152_noxref_d N_VDD_M154_noxref_d N_VDD_M163_noxref_s \
 N_VDD_M164_noxref_d )  PM_TMRDFFRNQX1\%VDD
x_PM_TMRDFFRNQX1\%noxref_3 ( N_noxref_3_c_2164_n N_noxref_3_c_2168_n \
 N_noxref_3_c_2169_n N_noxref_3_c_2240_p N_noxref_3_c_2170_n \
 N_noxref_3_c_2185_n N_noxref_3_c_2189_n N_noxref_3_c_2191_n \
 N_noxref_3_c_2195_n N_noxref_3_c_2171_n N_noxref_3_c_2352_p \
 N_noxref_3_c_2199_n N_noxref_3_c_2172_n N_noxref_3_c_2320_p \
 N_noxref_3_c_2362_p N_noxref_3_M2_noxref_g N_noxref_3_M6_noxref_g \
 N_noxref_3_M59_noxref_g N_noxref_3_M60_noxref_g N_noxref_3_M67_noxref_g \
 N_noxref_3_M68_noxref_g N_noxref_3_c_2265_p N_noxref_3_c_2266_p \
 N_noxref_3_c_2267_p N_noxref_3_c_2268_p N_noxref_3_c_2248_p \
 N_noxref_3_c_2270_p N_noxref_3_c_2249_p N_noxref_3_c_2173_n \
 N_noxref_3_c_2175_n N_noxref_3_c_2176_n N_noxref_3_c_2177_n \
 N_noxref_3_c_2178_n N_noxref_3_c_2179_n N_noxref_3_c_2180_n \
 N_noxref_3_c_2182_n N_noxref_3_c_2254_p N_noxref_3_c_2255_p \
 N_noxref_3_c_2247_p N_noxref_3_c_2211_n N_noxref_3_M5_noxref_d \
 N_noxref_3_M61_noxref_d N_noxref_3_M63_noxref_d N_noxref_3_M65_noxref_d )  \
 PM_TMRDFFRNQX1\%noxref_3
x_PM_TMRDFFRNQX1\%noxref_4 ( N_noxref_4_c_2414_n N_noxref_4_c_2462_n \
 N_noxref_4_c_2431_n N_noxref_4_c_2435_n N_noxref_4_c_2437_n \
 N_noxref_4_c_2415_n N_noxref_4_c_2543_p N_noxref_4_c_2416_n \
 N_noxref_4_c_2417_n N_noxref_4_c_2496_p N_noxref_4_M8_noxref_g \
 N_noxref_4_M71_noxref_g N_noxref_4_M72_noxref_g N_noxref_4_c_2418_n \
 N_noxref_4_c_2420_n N_noxref_4_c_2421_n N_noxref_4_c_2422_n \
 N_noxref_4_c_2423_n N_noxref_4_c_2424_n N_noxref_4_c_2425_n \
 N_noxref_4_c_2427_n N_noxref_4_c_2487_p N_noxref_4_c_2449_n \
 N_noxref_4_M7_noxref_d N_noxref_4_M67_noxref_d N_noxref_4_M69_noxref_d )  \
 PM_TMRDFFRNQX1\%noxref_4
x_PM_TMRDFFRNQX1\%noxref_5 ( N_noxref_5_c_2639_n N_noxref_5_c_2640_n \
 N_noxref_5_c_2566_n N_noxref_5_c_2647_n N_noxref_5_c_2591_n \
 N_noxref_5_c_2595_n N_noxref_5_c_2597_n N_noxref_5_c_2601_n \
 N_noxref_5_c_2567_n N_noxref_5_c_2654_n N_noxref_5_c_2605_n \
 N_noxref_5_c_2568_n N_noxref_5_c_2569_n N_noxref_5_c_2741_p \
 N_noxref_5_c_2663_n N_noxref_5_M3_noxref_g N_noxref_5_M11_noxref_g \
 N_noxref_5_M61_noxref_g N_noxref_5_M62_noxref_g N_noxref_5_M77_noxref_g \
 N_noxref_5_M78_noxref_g N_noxref_5_c_2570_n N_noxref_5_c_2572_n \
 N_noxref_5_c_2573_n N_noxref_5_c_2574_n N_noxref_5_c_2575_n \
 N_noxref_5_c_2576_n N_noxref_5_c_2577_n N_noxref_5_c_2579_n \
 N_noxref_5_c_2668_n N_noxref_5_c_2620_n N_noxref_5_c_2580_n \
 N_noxref_5_c_2582_n N_noxref_5_c_2583_n N_noxref_5_c_2584_n \
 N_noxref_5_c_2585_n N_noxref_5_c_2586_n N_noxref_5_c_2587_n \
 N_noxref_5_c_2589_n N_noxref_5_c_2701_p N_noxref_5_c_2622_n \
 N_noxref_5_M2_noxref_d N_noxref_5_M55_noxref_d N_noxref_5_M57_noxref_d \
 N_noxref_5_M59_noxref_d )  PM_TMRDFFRNQX1\%noxref_5
x_PM_TMRDFFRNQX1\%noxref_6 ( N_noxref_6_c_2819_n N_noxref_6_c_2820_n \
 N_noxref_6_c_2858_n N_noxref_6_c_2962_n N_noxref_6_c_2859_n \
 N_noxref_6_c_2860_n N_noxref_6_c_2861_n N_noxref_6_c_2862_n \
 N_noxref_6_c_3046_p N_noxref_6_c_2863_n N_noxref_6_c_2821_n \
 N_noxref_6_c_2964_n N_noxref_6_c_2822_n N_noxref_6_c_2869_n \
 N_noxref_6_c_2873_n N_noxref_6_c_2875_n N_noxref_6_c_2879_n \
 N_noxref_6_c_2824_n N_noxref_6_c_3131_p N_noxref_6_c_2883_n \
 N_noxref_6_c_2884_n N_noxref_6_c_2888_n N_noxref_6_c_2890_n \
 N_noxref_6_c_2894_n N_noxref_6_c_2825_n N_noxref_6_c_3135_p \
 N_noxref_6_c_2898_n N_noxref_6_c_2826_n N_noxref_6_c_3087_p \
 N_noxref_6_c_2827_n N_noxref_6_c_3089_p N_noxref_6_c_3147_p \
 N_noxref_6_c_3169_p N_noxref_6_c_3192_p N_noxref_6_M0_noxref_g \
 N_noxref_6_M7_noxref_g N_noxref_6_M14_noxref_g N_noxref_6_M15_noxref_g \
 N_noxref_6_M55_noxref_g N_noxref_6_M56_noxref_g N_noxref_6_M69_noxref_g \
 N_noxref_6_M70_noxref_g N_noxref_6_M83_noxref_g N_noxref_6_M84_noxref_g \
 N_noxref_6_M85_noxref_g N_noxref_6_M86_noxref_g N_noxref_6_c_2829_n \
 N_noxref_6_c_2831_n N_noxref_6_c_2832_n N_noxref_6_c_2833_n \
 N_noxref_6_c_2834_n N_noxref_6_c_2835_n N_noxref_6_c_2836_n \
 N_noxref_6_c_2838_n N_noxref_6_c_3044_n N_noxref_6_c_2922_n \
 N_noxref_6_c_2973_n N_noxref_6_c_2976_n N_noxref_6_c_2978_n \
 N_noxref_6_c_3008_n N_noxref_6_c_3010_n N_noxref_6_c_3011_n \
 N_noxref_6_c_2981_n N_noxref_6_c_2982_n N_noxref_6_c_2839_n \
 N_noxref_6_c_2841_n N_noxref_6_c_2842_n N_noxref_6_c_2843_n \
 N_noxref_6_c_2844_n N_noxref_6_c_2845_n N_noxref_6_c_2846_n \
 N_noxref_6_c_2848_n N_noxref_6_c_3232_p N_noxref_6_c_3233_p \
 N_noxref_6_c_3234_p N_noxref_6_c_3090_p N_noxref_6_c_3235_p \
 N_noxref_6_c_3140_p N_noxref_6_c_3237_p N_noxref_6_c_3202_p \
 N_noxref_6_c_2983_n N_noxref_6_c_3017_n N_noxref_6_c_2985_n \
 N_noxref_6_c_2924_n N_noxref_6_c_3141_p N_noxref_6_c_3210_p \
 N_noxref_6_c_3092_p N_noxref_6_M10_noxref_d N_noxref_6_M13_noxref_d \
 N_noxref_6_M71_noxref_d N_noxref_6_M73_noxref_d N_noxref_6_M75_noxref_d \
 N_noxref_6_M77_noxref_d N_noxref_6_M79_noxref_d N_noxref_6_M81_noxref_d )  \
 PM_TMRDFFRNQX1\%noxref_6
x_PM_TMRDFFRNQX1\%noxref_7 ( N_noxref_7_c_3369_p N_noxref_7_c_3385_p \
 N_noxref_7_c_3361_p N_noxref_7_c_3374_p N_noxref_7_c_3304_n \
 N_noxref_7_c_3319_n N_noxref_7_c_3323_n N_noxref_7_c_3325_n \
 N_noxref_7_c_3329_n N_noxref_7_c_3305_n N_noxref_7_c_3488_p \
 N_noxref_7_c_3333_n N_noxref_7_c_3306_n N_noxref_7_c_3456_p \
 N_noxref_7_c_3497_p N_noxref_7_M18_noxref_g N_noxref_7_M22_noxref_g \
 N_noxref_7_M91_noxref_g N_noxref_7_M92_noxref_g N_noxref_7_M99_noxref_g \
 N_noxref_7_M100_noxref_g N_noxref_7_c_3398_p N_noxref_7_c_3399_p \
 N_noxref_7_c_3400_p N_noxref_7_c_3401_p N_noxref_7_c_3382_p \
 N_noxref_7_c_3403_p N_noxref_7_c_3383_p N_noxref_7_c_3307_n \
 N_noxref_7_c_3309_n N_noxref_7_c_3310_n N_noxref_7_c_3311_n \
 N_noxref_7_c_3312_n N_noxref_7_c_3313_n N_noxref_7_c_3314_n \
 N_noxref_7_c_3316_n N_noxref_7_c_3387_p N_noxref_7_c_3388_p \
 N_noxref_7_c_3381_p N_noxref_7_c_3345_n N_noxref_7_M21_noxref_d \
 N_noxref_7_M93_noxref_d N_noxref_7_M95_noxref_d N_noxref_7_M97_noxref_d )  \
 PM_TMRDFFRNQX1\%noxref_7
x_PM_TMRDFFRNQX1\%noxref_8 ( N_noxref_8_c_3606_p N_noxref_8_c_3598_n \
 N_noxref_8_c_3567_n N_noxref_8_c_3571_n N_noxref_8_c_3573_n \
 N_noxref_8_c_3551_n N_noxref_8_c_3677_p N_noxref_8_c_3552_n \
 N_noxref_8_c_3553_n N_noxref_8_c_3632_p N_noxref_8_M24_noxref_g \
 N_noxref_8_M103_noxref_g N_noxref_8_M104_noxref_g N_noxref_8_c_3554_n \
 N_noxref_8_c_3556_n N_noxref_8_c_3557_n N_noxref_8_c_3558_n \
 N_noxref_8_c_3559_n N_noxref_8_c_3560_n N_noxref_8_c_3561_n \
 N_noxref_8_c_3563_n N_noxref_8_c_3623_p N_noxref_8_c_3585_n \
 N_noxref_8_M23_noxref_d N_noxref_8_M99_noxref_d N_noxref_8_M101_noxref_d )  \
 PM_TMRDFFRNQX1\%noxref_8
x_PM_TMRDFFRNQX1\%noxref_9 ( N_noxref_9_c_3776_n N_noxref_9_c_3777_n \
 N_noxref_9_c_3779_n N_noxref_9_c_3784_n N_noxref_9_c_3728_n \
 N_noxref_9_c_3732_n N_noxref_9_c_3734_n N_noxref_9_c_3738_n \
 N_noxref_9_c_3704_n N_noxref_9_c_3895_p N_noxref_9_c_3742_n \
 N_noxref_9_c_3705_n N_noxref_9_c_3706_n N_noxref_9_c_3879_p \
 N_noxref_9_c_3799_n N_noxref_9_M19_noxref_g N_noxref_9_M27_noxref_g \
 N_noxref_9_M93_noxref_g N_noxref_9_M94_noxref_g N_noxref_9_M109_noxref_g \
 N_noxref_9_M110_noxref_g N_noxref_9_c_3707_n N_noxref_9_c_3709_n \
 N_noxref_9_c_3710_n N_noxref_9_c_3711_n N_noxref_9_c_3712_n \
 N_noxref_9_c_3713_n N_noxref_9_c_3714_n N_noxref_9_c_3716_n \
 N_noxref_9_c_3804_n N_noxref_9_c_3757_n N_noxref_9_c_3717_n \
 N_noxref_9_c_3719_n N_noxref_9_c_3720_n N_noxref_9_c_3721_n \
 N_noxref_9_c_3722_n N_noxref_9_c_3723_n N_noxref_9_c_3724_n \
 N_noxref_9_c_3726_n N_noxref_9_c_3822_p N_noxref_9_c_3759_n \
 N_noxref_9_M18_noxref_d N_noxref_9_M87_noxref_d N_noxref_9_M89_noxref_d \
 N_noxref_9_M91_noxref_d )  PM_TMRDFFRNQX1\%noxref_9
x_PM_TMRDFFRNQX1\%noxref_10 ( N_noxref_10_c_4022_p N_noxref_10_c_4017_n \
 N_noxref_10_c_3979_n N_noxref_10_c_3983_n N_noxref_10_c_3985_n \
 N_noxref_10_c_3989_n N_noxref_10_c_3966_n N_noxref_10_c_4060_p \
 N_noxref_10_c_3993_n N_noxref_10_c_3967_n N_noxref_10_c_4070_p \
 N_noxref_10_c_4080_p N_noxref_10_M30_noxref_g N_noxref_10_M115_noxref_g \
 N_noxref_10_M116_noxref_g N_noxref_10_c_3968_n N_noxref_10_c_3970_n \
 N_noxref_10_c_3971_n N_noxref_10_c_3972_n N_noxref_10_c_3973_n \
 N_noxref_10_c_3974_n N_noxref_10_c_3975_n N_noxref_10_c_3977_n \
 N_noxref_10_c_4001_n N_noxref_10_M29_noxref_d N_noxref_10_M109_noxref_d \
 N_noxref_10_M111_noxref_d N_noxref_10_M113_noxref_d )  \
 PM_TMRDFFRNQX1\%noxref_10
x_PM_TMRDFFRNQX1\%noxref_11 ( N_noxref_11_c_4146_n N_noxref_11_c_4148_n \
 N_noxref_11_c_4149_n N_noxref_11_c_4215_n N_noxref_11_c_4150_n \
 N_noxref_11_c_4152_n N_noxref_11_c_4129_n N_noxref_11_c_4217_n \
 N_noxref_11_c_4130_n N_noxref_11_c_4158_n N_noxref_11_c_4162_n \
 N_noxref_11_c_4164_n N_noxref_11_c_4168_n N_noxref_11_c_4132_n \
 N_noxref_11_c_4392_p N_noxref_11_c_4172_n N_noxref_11_c_4299_n \
 N_noxref_11_c_4133_n N_noxref_11_c_4351_p N_noxref_11_c_4402_p \
 N_noxref_11_M16_noxref_g N_noxref_11_M23_noxref_g N_noxref_11_M31_noxref_g \
 N_noxref_11_M87_noxref_g N_noxref_11_M88_noxref_g N_noxref_11_M101_noxref_g \
 N_noxref_11_M102_noxref_g N_noxref_11_M117_noxref_g N_noxref_11_M118_noxref_g \
 N_noxref_11_c_4135_n N_noxref_11_c_4137_n N_noxref_11_c_4138_n \
 N_noxref_11_c_4139_n N_noxref_11_c_4140_n N_noxref_11_c_4141_n \
 N_noxref_11_c_4142_n N_noxref_11_c_4144_n N_noxref_11_c_4293_n \
 N_noxref_11_c_4189_n N_noxref_11_c_4226_n N_noxref_11_c_4229_n \
 N_noxref_11_c_4231_n N_noxref_11_c_4261_n N_noxref_11_c_4263_n \
 N_noxref_11_c_4264_n N_noxref_11_c_4234_n N_noxref_11_c_4235_n \
 N_noxref_11_c_4308_n N_noxref_11_c_4311_n N_noxref_11_c_4313_n \
 N_noxref_11_c_4352_p N_noxref_11_c_4448_p N_noxref_11_c_4396_p \
 N_noxref_11_c_4316_n N_noxref_11_c_4317_n N_noxref_11_c_4236_n \
 N_noxref_11_c_4270_n N_noxref_11_c_4238_n N_noxref_11_c_4318_n \
 N_noxref_11_c_4442_p N_noxref_11_c_4320_n N_noxref_11_M26_noxref_d \
 N_noxref_11_M103_noxref_d N_noxref_11_M105_noxref_d N_noxref_11_M107_noxref_d \
 )  PM_TMRDFFRNQX1\%noxref_11
x_PM_TMRDFFRNQX1\%D ( N_D_c_4505_n N_D_c_4512_n N_D_c_4513_n N_D_c_4609_n D D \
 N_D_c_4519_n N_D_c_4520_n N_D_c_4521_n N_D_M4_noxref_g N_D_M20_noxref_g \
 N_D_M36_noxref_g N_D_M63_noxref_g N_D_M64_noxref_g N_D_M95_noxref_g \
 N_D_M96_noxref_g N_D_M127_noxref_g N_D_M128_noxref_g N_D_c_4573_n \
 N_D_c_4576_n N_D_c_4820_p N_D_c_4827_p N_D_c_4578_n N_D_c_4579_n N_D_c_4580_n \
 N_D_c_4581_n N_D_c_4553_n N_D_c_4638_n N_D_c_4641_n N_D_c_4841_p N_D_c_4848_p \
 N_D_c_4643_n N_D_c_4644_n N_D_c_4645_n N_D_c_4646_n N_D_c_4617_n N_D_c_4686_p \
 N_D_c_4688_p N_D_c_4861_p N_D_c_4868_p N_D_c_4692_p N_D_c_4694_p N_D_c_4695_p \
 N_D_c_4681_p N_D_c_4669_p N_D_c_4554_n N_D_c_4618_n N_D_c_4670_p )  \
 PM_TMRDFFRNQX1\%D
x_PM_TMRDFFRNQX1\%CLK ( N_CLK_c_4879_n N_CLK_c_4896_n N_CLK_c_4897_n \
 N_CLK_c_4914_n N_CLK_c_4915_n N_CLK_c_4932_n N_CLK_c_4933_n N_CLK_c_4950_n \
 N_CLK_c_4951_n N_CLK_c_4968_n CLK CLK CLK CLK CLK CLK CLK CLK CLK CLK CLK CLK \
 CLK CLK CLK CLK N_CLK_c_4873_n N_CLK_c_4874_n N_CLK_c_4875_n N_CLK_c_4876_n \
 N_CLK_c_4877_n N_CLK_c_4878_n N_CLK_M1_noxref_g N_CLK_M9_noxref_g \
 N_CLK_M17_noxref_g N_CLK_M25_noxref_g N_CLK_M33_noxref_g N_CLK_M41_noxref_g \
 N_CLK_M57_noxref_g N_CLK_M58_noxref_g N_CLK_M73_noxref_g N_CLK_M74_noxref_g \
 N_CLK_M89_noxref_g N_CLK_M90_noxref_g N_CLK_M105_noxref_g N_CLK_M106_noxref_g \
 N_CLK_M121_noxref_g N_CLK_M122_noxref_g N_CLK_M137_noxref_g \
 N_CLK_M138_noxref_g N_CLK_c_5131_n N_CLK_c_5134_n N_CLK_c_5546_p \
 N_CLK_c_5553_p N_CLK_c_5023_n N_CLK_c_5024_n N_CLK_c_5025_n N_CLK_c_5026_n \
 N_CLK_c_5029_n N_CLK_c_5047_n N_CLK_c_5050_n N_CLK_c_5566_p N_CLK_c_5573_p \
 N_CLK_c_5052_n N_CLK_c_5053_n N_CLK_c_5054_n N_CLK_c_5055_n N_CLK_c_5141_n \
 N_CLK_c_5276_n N_CLK_c_5279_n N_CLK_c_5586_p N_CLK_c_5593_p N_CLK_c_5165_n \
 N_CLK_c_5166_n N_CLK_c_5167_n N_CLK_c_5168_n N_CLK_c_5171_n N_CLK_c_5189_n \
 N_CLK_c_5192_n N_CLK_c_5606_p N_CLK_c_5613_p N_CLK_c_5194_n N_CLK_c_5195_n \
 N_CLK_c_5196_n N_CLK_c_5197_n N_CLK_c_5286_n N_CLK_c_5434_p N_CLK_c_5436_p \
 N_CLK_c_5626_p N_CLK_c_5633_p N_CLK_c_5440_p N_CLK_c_5442_p N_CLK_c_5443_p \
 N_CLK_c_5336_p N_CLK_c_5321_p N_CLK_c_5497_p N_CLK_c_5499_p N_CLK_c_5646_p \
 N_CLK_c_5653_p N_CLK_c_5377_p N_CLK_c_5378_p N_CLK_c_5379_p N_CLK_c_5338_p \
 N_CLK_c_5403_p N_CLK_c_5030_n N_CLK_c_5057_n N_CLK_c_5172_n N_CLK_c_5199_n \
 N_CLK_c_5313_p N_CLK_c_5359_p )  PM_TMRDFFRNQX1\%CLK
x_PM_TMRDFFRNQX1\%noxref_14 ( N_noxref_14_c_5755_n N_noxref_14_c_5756_n \
 N_noxref_14_c_5730_n N_noxref_14_c_5731_n N_noxref_14_c_5682_n \
 N_noxref_14_c_5686_n N_noxref_14_c_5688_n N_noxref_14_c_5692_n \
 N_noxref_14_c_5658_n N_noxref_14_c_5775_p N_noxref_14_c_5696_n \
 N_noxref_14_c_5659_n N_noxref_14_c_5660_n N_noxref_14_c_5770_n \
 N_noxref_14_c_5850_p N_noxref_14_M35_noxref_g N_noxref_14_M43_noxref_g \
 N_noxref_14_M125_noxref_g N_noxref_14_M126_noxref_g N_noxref_14_M141_noxref_g \
 N_noxref_14_M142_noxref_g N_noxref_14_c_5661_n N_noxref_14_c_5663_n \
 N_noxref_14_c_5664_n N_noxref_14_c_5665_n N_noxref_14_c_5666_n \
 N_noxref_14_c_5667_n N_noxref_14_c_5668_n N_noxref_14_c_5670_n \
 N_noxref_14_c_5751_n N_noxref_14_c_5711_n N_noxref_14_c_5671_n \
 N_noxref_14_c_5673_n N_noxref_14_c_5674_n N_noxref_14_c_5675_n \
 N_noxref_14_c_5676_n N_noxref_14_c_5677_n N_noxref_14_c_5678_n \
 N_noxref_14_c_5680_n N_noxref_14_c_5788_p N_noxref_14_c_5713_n \
 N_noxref_14_M34_noxref_d N_noxref_14_M119_noxref_d N_noxref_14_M121_noxref_d \
 N_noxref_14_M123_noxref_d )  PM_TMRDFFRNQX1\%noxref_14
x_PM_TMRDFFRNQX1\%RN ( N_RN_c_5917_n N_RN_c_5925_n N_RN_c_5927_n N_RN_c_5931_n \
 N_RN_c_5932_n N_RN_c_5943_n N_RN_c_5944_n N_RN_c_5952_n N_RN_c_5953_n \
 N_RN_c_5957_n N_RN_c_5958_n N_RN_c_5969_n N_RN_c_5970_n N_RN_c_5978_n \
 N_RN_c_5979_n N_RN_c_5983_n RN RN RN RN RN RN RN RN RN RN N_RN_c_5984_n \
 N_RN_c_5985_n N_RN_c_5986_n N_RN_c_5987_n N_RN_c_5988_n N_RN_c_5989_n \
 N_RN_c_5990_n N_RN_c_5991_n N_RN_c_5992_n N_RN_M5_noxref_g N_RN_M10_noxref_g \
 N_RN_M12_noxref_g N_RN_M21_noxref_g N_RN_M26_noxref_g N_RN_M28_noxref_g \
 N_RN_M37_noxref_g N_RN_M42_noxref_g N_RN_M44_noxref_g N_RN_M65_noxref_g \
 N_RN_M66_noxref_g N_RN_M75_noxref_g N_RN_M76_noxref_g N_RN_M79_noxref_g \
 N_RN_M80_noxref_g N_RN_M97_noxref_g N_RN_M98_noxref_g N_RN_M107_noxref_g \
 N_RN_M108_noxref_g N_RN_M111_noxref_g N_RN_M112_noxref_g N_RN_M129_noxref_g \
 N_RN_M130_noxref_g N_RN_M139_noxref_g N_RN_M140_noxref_g N_RN_M143_noxref_g \
 N_RN_M144_noxref_g N_RN_c_6059_n N_RN_c_6060_n N_RN_c_6061_n N_RN_c_6062_n \
 N_RN_c_6063_n N_RN_c_6065_n N_RN_c_6066_n N_RN_c_6146_n N_RN_c_6147_n \
 N_RN_c_6148_n N_RN_c_6149_n N_RN_c_6150_n N_RN_c_6152_n N_RN_c_6153_n \
 N_RN_c_6100_n N_RN_c_6103_n N_RN_c_6702_p N_RN_c_6710_p N_RN_c_6105_n \
 N_RN_c_6106_n N_RN_c_6107_n N_RN_c_6108_n N_RN_c_6155_n N_RN_c_6180_n \
 N_RN_c_6181_n N_RN_c_6182_n N_RN_c_6183_n N_RN_c_6184_n N_RN_c_6186_n \
 N_RN_c_6187_n N_RN_c_6267_n N_RN_c_6268_n N_RN_c_6269_n N_RN_c_6270_n \
 N_RN_c_6271_n N_RN_c_6273_n N_RN_c_6274_n N_RN_c_6220_n N_RN_c_6223_n \
 N_RN_c_6783_p N_RN_c_6791_p N_RN_c_6225_n N_RN_c_6226_n N_RN_c_6227_n \
 N_RN_c_6228_n N_RN_c_6243_n N_RN_c_6339_n N_RN_c_6340_n N_RN_c_6341_n \
 N_RN_c_6584_p N_RN_c_6545_p N_RN_c_6586_p N_RN_c_6546_p N_RN_c_6412_n \
 N_RN_c_6413_n N_RN_c_6414_n N_RN_c_6507_p N_RN_c_6483_p N_RN_c_6509_p \
 N_RN_c_6484_p N_RN_c_6458_n N_RN_c_6461_n N_RN_c_6860_p N_RN_c_6867_p \
 N_RN_c_6463_n N_RN_c_6464_n N_RN_c_6465_n N_RN_c_6466_n N_RN_c_6475_p \
 N_RN_c_6068_n N_RN_c_6069_n N_RN_c_6071_n N_RN_c_6156_n N_RN_c_6157_n \
 N_RN_c_6159_n N_RN_c_6110_n N_RN_c_6189_n N_RN_c_6190_n N_RN_c_6192_n \
 N_RN_c_6276_n N_RN_c_6277_n N_RN_c_6279_n N_RN_c_6230_n N_RN_c_6354_n \
 N_RN_c_6356_n N_RN_c_6357_n N_RN_c_6434_n N_RN_c_6436_n N_RN_c_6437_n \
 N_RN_c_6468_n )  PM_TMRDFFRNQX1\%RN
x_PM_TMRDFFRNQX1\%noxref_16 ( N_noxref_16_c_6902_n N_noxref_16_c_6904_n \
 N_noxref_16_c_6905_n N_noxref_16_c_7033_n N_noxref_16_c_6907_n \
 N_noxref_16_c_6913_n N_noxref_16_c_6916_n N_noxref_16_c_6922_n \
 N_noxref_16_c_6925_n N_noxref_16_c_6926_n N_noxref_16_c_6872_n \
 N_noxref_16_c_7039_n N_noxref_16_c_6873_n N_noxref_16_c_6934_n \
 N_noxref_16_c_6938_n N_noxref_16_c_6940_n N_noxref_16_c_6944_n \
 N_noxref_16_c_6875_n N_noxref_16_c_7110_n N_noxref_16_c_6948_n \
 N_noxref_16_c_6949_n N_noxref_16_c_6953_n N_noxref_16_c_6955_n \
 N_noxref_16_c_6959_n N_noxref_16_c_6876_n N_noxref_16_c_7311_p \
 N_noxref_16_c_6963_n N_noxref_16_c_6877_n N_noxref_16_c_7252_p \
 N_noxref_16_c_6878_n N_noxref_16_c_7048_n N_noxref_16_c_7123_n \
 N_noxref_16_c_7125_n N_noxref_16_c_7250_p N_noxref_16_M32_noxref_g \
 N_noxref_16_M39_noxref_g N_noxref_16_M46_noxref_g N_noxref_16_M47_noxref_g \
 N_noxref_16_M119_noxref_g N_noxref_16_M120_noxref_g N_noxref_16_M133_noxref_g \
 N_noxref_16_M134_noxref_g N_noxref_16_M147_noxref_g N_noxref_16_M148_noxref_g \
 N_noxref_16_M149_noxref_g N_noxref_16_M150_noxref_g N_noxref_16_c_6880_n \
 N_noxref_16_c_6882_n N_noxref_16_c_6883_n N_noxref_16_c_6884_n \
 N_noxref_16_c_6885_n N_noxref_16_c_6886_n N_noxref_16_c_6887_n \
 N_noxref_16_c_6889_n N_noxref_16_c_7063_n N_noxref_16_c_6987_n \
 N_noxref_16_c_7207_p N_noxref_16_c_7209_p N_noxref_16_c_7210_p \
 N_noxref_16_c_7068_n N_noxref_16_c_7225_p N_noxref_16_c_7127_n \
 N_noxref_16_c_7215_p N_noxref_16_c_7187_p N_noxref_16_c_6890_n \
 N_noxref_16_c_6892_n N_noxref_16_c_6893_n N_noxref_16_c_6894_n \
 N_noxref_16_c_6895_n N_noxref_16_c_6896_n N_noxref_16_c_6897_n \
 N_noxref_16_c_6899_n N_noxref_16_c_7294_p N_noxref_16_c_7295_p \
 N_noxref_16_c_7296_p N_noxref_16_c_7240_p N_noxref_16_c_7297_p \
 N_noxref_16_c_7262_p N_noxref_16_c_7299_p N_noxref_16_c_7263_p \
 N_noxref_16_c_7128_n N_noxref_16_c_7195_p N_noxref_16_c_7069_n \
 N_noxref_16_c_6989_n N_noxref_16_c_7270_p N_noxref_16_c_7271_p \
 N_noxref_16_c_7241_p N_noxref_16_M42_noxref_d N_noxref_16_M45_noxref_d \
 N_noxref_16_M135_noxref_d N_noxref_16_M137_noxref_d N_noxref_16_M139_noxref_d \
 N_noxref_16_M141_noxref_d N_noxref_16_M143_noxref_d N_noxref_16_M145_noxref_d \
 )  PM_TMRDFFRNQX1\%noxref_16
x_PM_TMRDFFRNQX1\%noxref_17 ( N_noxref_17_c_7562_n N_noxref_17_c_7566_n \
 N_noxref_17_c_7433_n N_noxref_17_c_7600_n N_noxref_17_c_7630_n \
 N_noxref_17_c_7632_n N_noxref_17_c_7719_n N_noxref_17_c_7720_n \
 N_noxref_17_c_7721_n N_noxref_17_c_7722_n N_noxref_17_c_7723_n \
 N_noxref_17_c_7724_n N_noxref_17_c_7654_n N_noxref_17_c_7655_n \
 N_noxref_17_c_7434_n N_noxref_17_c_7439_n N_noxref_17_c_7372_n \
 N_noxref_17_c_7444_n N_noxref_17_c_7448_n N_noxref_17_c_7450_n \
 N_noxref_17_c_7373_n N_noxref_17_c_7784_n N_noxref_17_c_7374_n \
 N_noxref_17_c_7375_n N_noxref_17_c_7456_n N_noxref_17_c_7460_n \
 N_noxref_17_c_7462_n N_noxref_17_c_7466_n N_noxref_17_c_7376_n \
 N_noxref_17_c_7792_n N_noxref_17_c_7470_n N_noxref_17_c_7377_n \
 N_noxref_17_c_7474_n N_noxref_17_c_7478_n N_noxref_17_c_7480_n \
 N_noxref_17_c_7378_n N_noxref_17_c_7801_n N_noxref_17_c_7379_n \
 N_noxref_17_c_7380_n N_noxref_17_c_7381_n N_noxref_17_c_7384_n \
 N_noxref_17_c_7615_n N_noxref_17_c_7641_n N_noxref_17_c_7805_n \
 N_noxref_17_c_7895_n N_noxref_17_M29_noxref_g N_noxref_17_M34_noxref_g \
 N_noxref_17_M38_noxref_g N_noxref_17_M40_noxref_g N_noxref_17_M48_noxref_g \
 N_noxref_17_M50_noxref_g N_noxref_17_M113_noxref_g N_noxref_17_M114_noxref_g \
 N_noxref_17_M123_noxref_g N_noxref_17_M124_noxref_g N_noxref_17_M131_noxref_g \
 N_noxref_17_M132_noxref_g N_noxref_17_M135_noxref_g N_noxref_17_M136_noxref_g \
 N_noxref_17_M151_noxref_g N_noxref_17_M152_noxref_g N_noxref_17_M155_noxref_g \
 N_noxref_17_M156_noxref_g N_noxref_17_c_7581_n N_noxref_17_c_7582_n \
 N_noxref_17_c_7583_n N_noxref_17_c_7584_n N_noxref_17_c_7585_n \
 N_noxref_17_c_7587_n N_noxref_17_c_7588_n N_noxref_17_c_7685_n \
 N_noxref_17_c_7686_n N_noxref_17_c_7687_n N_noxref_17_c_7748_n \
 N_noxref_17_c_7749_n N_noxref_17_c_7751_n N_noxref_17_c_7752_n \
 N_noxref_17_c_7386_n N_noxref_17_c_7388_n N_noxref_17_c_7389_n \
 N_noxref_17_c_7390_n N_noxref_17_c_7391_n N_noxref_17_c_7392_n \
 N_noxref_17_c_7393_n N_noxref_17_c_7395_n N_noxref_17_c_7396_n \
 N_noxref_17_c_7398_n N_noxref_17_c_7399_n N_noxref_17_c_7400_n \
 N_noxref_17_c_7401_n N_noxref_17_c_7402_n N_noxref_17_c_7403_n \
 N_noxref_17_c_7405_n N_noxref_17_c_7698_n N_noxref_17_c_7518_n \
 N_noxref_17_c_7406_n N_noxref_17_c_7408_n N_noxref_17_c_7409_n \
 N_noxref_17_c_7410_n N_noxref_17_c_7411_n N_noxref_17_c_7412_n \
 N_noxref_17_c_7946_p N_noxref_17_c_7520_n N_noxref_17_c_7413_n \
 N_noxref_17_c_7415_n N_noxref_17_c_7416_n N_noxref_17_c_7418_n \
 N_noxref_17_c_8029_p N_noxref_17_c_7419_n N_noxref_17_c_7420_n \
 N_noxref_17_c_7421_n N_noxref_17_c_7422_n N_noxref_17_c_7424_n \
 N_noxref_17_c_7590_n N_noxref_17_c_7591_n N_noxref_17_c_7593_n \
 N_noxref_17_c_7704_n N_noxref_17_c_7706_n N_noxref_17_c_7707_n \
 N_noxref_17_c_7522_n N_noxref_17_c_7425_n N_noxref_17_c_7523_n \
 N_noxref_17_M31_noxref_d N_noxref_17_M37_noxref_d N_noxref_17_M39_noxref_d \
 N_noxref_17_M115_noxref_d N_noxref_17_M117_noxref_d N_noxref_17_M125_noxref_d \
 N_noxref_17_M127_noxref_d N_noxref_17_M129_noxref_d N_noxref_17_M131_noxref_d \
 N_noxref_17_M133_noxref_d )  PM_TMRDFFRNQX1\%noxref_17
x_PM_TMRDFFRNQX1\%noxref_18 ( N_noxref_18_c_8147_n N_noxref_18_c_8199_n \
 N_noxref_18_c_8148_n N_noxref_18_c_8150_n N_noxref_18_c_8135_n \
 N_noxref_18_c_8156_n N_noxref_18_c_8136_n N_noxref_18_c_8158_n \
 N_noxref_18_c_8162_n N_noxref_18_c_8164_n N_noxref_18_c_8137_n \
 N_noxref_18_c_8358_p N_noxref_18_c_8138_n N_noxref_18_c_8170_n \
 N_noxref_18_c_8139_n N_noxref_18_c_8141_n N_noxref_18_c_8260_n \
 N_noxref_18_c_8381_p N_noxref_18_M45_noxref_g N_noxref_18_M49_noxref_g \
 N_noxref_18_M53_noxref_g N_noxref_18_M145_noxref_g N_noxref_18_M146_noxref_g \
 N_noxref_18_M153_noxref_g N_noxref_18_M154_noxref_g N_noxref_18_M161_noxref_g \
 N_noxref_18_M162_noxref_g N_noxref_18_c_8209_n N_noxref_18_c_8210_n \
 N_noxref_18_c_8211_n N_noxref_18_c_8268_n N_noxref_18_c_8269_n \
 N_noxref_18_c_8271_n N_noxref_18_c_8272_n N_noxref_18_c_8322_n \
 N_noxref_18_c_8325_n N_noxref_18_c_8327_n N_noxref_18_c_8186_n \
 N_noxref_18_c_8412_p N_noxref_18_c_8413_p N_noxref_18_c_8331_n \
 N_noxref_18_c_8332_n N_noxref_18_c_8377_p N_noxref_18_c_8388_p \
 N_noxref_18_c_8379_p N_noxref_18_c_8439_p N_noxref_18_c_8420_p \
 N_noxref_18_c_8390_p N_noxref_18_c_8387_p N_noxref_18_c_8391_p \
 N_noxref_18_c_8212_n N_noxref_18_c_8215_n N_noxref_18_c_8216_n \
 N_noxref_18_c_8143_n N_noxref_18_c_8487_p N_noxref_18_c_8187_n \
 N_noxref_18_c_8365_p N_noxref_18_c_8435_p N_noxref_18_c_8371_p \
 N_noxref_18_M47_noxref_d N_noxref_18_M147_noxref_d N_noxref_18_M149_noxref_d ) \
 PM_TMRDFFRNQX1\%noxref_18
x_PM_TMRDFFRNQX1\%noxref_19 ( N_noxref_19_c_8499_n N_noxref_19_c_8505_n \
 N_noxref_19_c_8510_n N_noxref_19_c_8514_n N_noxref_19_c_8516_n \
 N_noxref_19_c_8519_n N_noxref_19_c_8545_n N_noxref_19_c_8521_n \
 N_noxref_19_c_8564_p N_noxref_19_M151_noxref_d N_noxref_19_M153_noxref_d \
 N_noxref_19_M155_noxref_s N_noxref_19_M156_noxref_d N_noxref_19_M158_noxref_d \
 )  PM_TMRDFFRNQX1\%noxref_19
x_PM_TMRDFFRNQX1\%noxref_20 ( N_noxref_20_c_8590_n N_noxref_20_c_8681_n \
 N_noxref_20_c_8591_n N_noxref_20_c_8683_n N_noxref_20_c_8611_n \
 N_noxref_20_c_8612_n N_noxref_20_c_8613_n N_noxref_20_c_8635_n \
 N_noxref_20_c_8639_n N_noxref_20_c_8641_n N_noxref_20_c_8614_n \
 N_noxref_20_c_8836_n N_noxref_20_c_8615_n N_noxref_20_c_8616_n \
 N_noxref_20_c_8618_n N_noxref_20_c_8708_n N_noxref_20_M13_noxref_g \
 N_noxref_20_M51_noxref_g N_noxref_20_M52_noxref_g N_noxref_20_M81_noxref_g \
 N_noxref_20_M82_noxref_g N_noxref_20_M157_noxref_g N_noxref_20_M158_noxref_g \
 N_noxref_20_M159_noxref_g N_noxref_20_M160_noxref_g N_noxref_20_c_8713_n \
 N_noxref_20_c_8714_n N_noxref_20_c_8715_n N_noxref_20_c_8716_n \
 N_noxref_20_c_8717_n N_noxref_20_c_8719_n N_noxref_20_c_8720_n \
 N_noxref_20_c_8900_n N_noxref_20_c_8903_n N_noxref_20_c_8976_p \
 N_noxref_20_c_8905_n N_noxref_20_c_9004_p N_noxref_20_c_9005_p \
 N_noxref_20_c_8659_n N_noxref_20_c_8909_n N_noxref_20_c_8910_n \
 N_noxref_20_c_8911_n N_noxref_20_c_8619_n N_noxref_20_c_8620_n \
 N_noxref_20_c_8622_n N_noxref_20_c_8941_n N_noxref_20_c_8623_n \
 N_noxref_20_c_8624_n N_noxref_20_c_8625_n N_noxref_20_c_8943_n \
 N_noxref_20_c_8660_n N_noxref_20_c_8626_n N_noxref_20_c_8628_n \
 N_noxref_20_c_8722_n N_noxref_20_c_8723_n N_noxref_20_c_8725_n \
 N_noxref_20_c_8629_n N_noxref_20_M15_noxref_d N_noxref_20_M83_noxref_d \
 N_noxref_20_M85_noxref_d )  PM_TMRDFFRNQX1\%noxref_20
x_PM_TMRDFFRNQX1\%noxref_21 ( N_noxref_21_c_9083_n N_noxref_21_c_9087_n \
 N_noxref_21_c_9099_n N_noxref_21_c_9089_n N_noxref_21_c_9090_n \
 N_noxref_21_c_9091_n N_noxref_21_c_9111_n N_noxref_21_c_9093_n \
 N_noxref_21_c_9112_n N_noxref_21_M155_noxref_d N_noxref_21_M157_noxref_d \
 N_noxref_21_M159_noxref_s N_noxref_21_M160_noxref_d N_noxref_21_M162_noxref_d \
 )  PM_TMRDFFRNQX1\%noxref_21
x_PM_TMRDFFRNQX1\%noxref_22 ( N_noxref_22_c_9173_n N_noxref_22_c_9180_n \
 N_noxref_22_c_9181_n N_noxref_22_c_9188_n N_noxref_22_c_9189_n \
 N_noxref_22_c_9192_n N_noxref_22_c_9279_n N_noxref_22_c_9230_n \
 N_noxref_22_c_9231_n N_noxref_22_c_9193_n N_noxref_22_c_9286_n \
 N_noxref_22_c_9195_n N_noxref_22_c_9196_n N_noxref_22_c_9295_n \
 N_noxref_22_M54_noxref_g N_noxref_22_M163_noxref_g N_noxref_22_M164_noxref_g \
 N_noxref_22_c_9201_n N_noxref_22_c_9401_p N_noxref_22_c_9402_p \
 N_noxref_22_c_9203_n N_noxref_22_c_9245_n N_noxref_22_c_9246_n \
 N_noxref_22_c_9204_n N_noxref_22_c_9393_p N_noxref_22_c_9205_n \