// File: TMRDFFSNRNQX1.spi.TMRDFFSNRNQX1.pxi
// Created: Tue Oct 15 15:53:14 2024
// 
simulator lang=spectre
x_PM_TMRDFFSNRNQX1\%GND ( GND N_GND_c_108_p N_GND_c_230_p N_GND_c_1_p \
 N_GND_c_237_p N_GND_c_32_p N_GND_c_39_p N_GND_c_42_p N_GND_c_49_p \
 N_GND_c_58_p N_GND_c_65_p N_GND_c_74_p N_GND_c_81_p N_GND_c_90_p N_GND_c_97_p \
 N_GND_c_240_p N_GND_c_247_p N_GND_c_142_p N_GND_c_149_p N_GND_c_152_p \
 N_GND_c_159_p N_GND_c_168_p N_GND_c_175_p N_GND_c_182_p N_GND_c_189_p \
 N_GND_c_198_p N_GND_c_205_p N_GND_c_250_p N_GND_c_257_p N_GND_c_268_p \
 N_GND_c_275_p N_GND_c_278_p N_GND_c_285_p N_GND_c_294_p N_GND_c_301_p \
 N_GND_c_314_p N_GND_c_321_p N_GND_c_406_p N_GND_c_413_p N_GND_c_113_p \
 N_GND_c_120_p N_GND_c_123_p N_GND_c_129_p N_GND_c_469_p N_GND_c_475_p \
 N_GND_c_1089_p N_GND_c_504_p N_GND_c_512_p N_GND_c_2_p N_GND_c_3_p \
 N_GND_c_4_p N_GND_c_5_p N_GND_c_6_p N_GND_c_7_p N_GND_c_8_p N_GND_c_9_p \
 N_GND_c_10_p N_GND_c_11_p N_GND_c_12_p N_GND_c_13_p N_GND_c_14_p N_GND_c_15_p \
 N_GND_c_16_p N_GND_c_17_p N_GND_c_18_p N_GND_c_19_p N_GND_c_20_p N_GND_c_21_p \
 N_GND_c_22_p N_GND_c_23_p N_GND_M0_noxref_d N_GND_M3_noxref_d \
 N_GND_M6_noxref_d N_GND_M9_noxref_d N_GND_M12_noxref_d N_GND_M15_noxref_d \
 N_GND_M18_noxref_d N_GND_M21_noxref_d N_GND_M24_noxref_d N_GND_M27_noxref_d \
 N_GND_M30_noxref_d N_GND_M33_noxref_d N_GND_M36_noxref_d N_GND_M39_noxref_d \
 N_GND_M42_noxref_d N_GND_M45_noxref_d N_GND_M48_noxref_d N_GND_M51_noxref_d \
 N_GND_M54_noxref_d N_GND_M56_noxref_d N_GND_M58_noxref_d N_GND_M60_noxref_s ) \
 PM_TMRDFFSNRNQX1\%GND
x_PM_TMRDFFSNRNQX1\%VDD ( VDD N_VDD_c_1120_p N_VDD_c_1752_p N_VDD_c_1097_n \
 N_VDD_c_1121_p N_VDD_c_1122_p N_VDD_c_1128_p N_VDD_c_1132_p N_VDD_c_1742_p \
 N_VDD_c_1141_p N_VDD_c_1210_p N_VDD_c_1216_p N_VDD_c_1220_p N_VDD_c_1878_p \
 N_VDD_c_1145_p N_VDD_c_1170_p N_VDD_c_1176_p N_VDD_c_1180_p N_VDD_c_1881_p \
 N_VDD_c_1186_p N_VDD_c_1294_p N_VDD_c_1300_p N_VDD_c_1304_p N_VDD_c_1890_p \
 N_VDD_c_1230_p N_VDD_c_1253_p N_VDD_c_1259_p N_VDD_c_1263_p N_VDD_c_1893_p \
 N_VDD_c_1269_p N_VDD_c_1415_p N_VDD_c_1316_p N_VDD_c_1336_p N_VDD_c_1337_p \
 N_VDD_c_1338_p N_VDD_c_1466_p N_VDD_c_1472_p N_VDD_c_1339_p N_VDD_c_1340_p \
 N_VDD_c_1341_p N_VDD_c_1554_p N_VDD_c_1560_p N_VDD_c_1342_p N_VDD_c_1343_p \
 N_VDD_c_1344_p N_VDD_c_1514_p N_VDD_c_1520_p N_VDD_c_1345_p N_VDD_c_1346_p \
 N_VDD_c_1347_p N_VDD_c_1638_p N_VDD_c_1644_p N_VDD_c_1348_p N_VDD_c_1349_p \
 N_VDD_c_1350_p N_VDD_c_1597_p N_VDD_c_1603_p N_VDD_c_1351_p N_VDD_c_1352_p \
 N_VDD_c_1353_p N_VDD_c_1693_p N_VDD_c_1660_p N_VDD_c_1354_p N_VDD_c_1355_p \
 N_VDD_c_1356_p N_VDD_c_1791_p N_VDD_c_1797_p N_VDD_c_1357_p N_VDD_c_1358_p \
 N_VDD_c_1359_p N_VDD_c_1934_p N_VDD_c_1951_p N_VDD_c_1360_p N_VDD_c_1361_p \
 N_VDD_c_1362_p N_VDD_c_1839_p N_VDD_c_1845_p N_VDD_c_1363_p N_VDD_c_1364_p \
 N_VDD_c_1365_p N_VDD_c_1938_p N_VDD_c_2026_p N_VDD_c_1390_p N_VDD_c_1391_p \
 N_VDD_c_1392_p N_VDD_c_2030_p N_VDD_c_2042_p N_VDD_c_1393_p N_VDD_c_1394_p \
 N_VDD_c_1395_p N_VDD_c_2102_p N_VDD_c_2132_p N_VDD_c_1396_p N_VDD_c_1397_p \
 N_VDD_c_1404_p N_VDD_c_1715_p N_VDD_c_2153_p N_VDD_c_1443_p N_VDD_c_1686_p \
 N_VDD_c_2251_p N_VDD_c_2252_p N_VDD_c_1098_n N_VDD_c_1099_n N_VDD_c_1100_n \
 N_VDD_c_1101_n N_VDD_c_1102_n N_VDD_c_1103_n N_VDD_c_1104_n N_VDD_c_1105_n \
 N_VDD_c_1106_n N_VDD_c_1107_n N_VDD_c_1108_n N_VDD_c_1109_n N_VDD_c_1110_n \
 N_VDD_c_1111_n N_VDD_c_1112_n N_VDD_c_1113_n N_VDD_c_1114_n N_VDD_c_1115_n \
 N_VDD_c_1116_n N_VDD_c_1117_n N_VDD_c_1118_n N_VDD_c_1119_n \
 N_VDD_M61_noxref_s N_VDD_M62_noxref_d N_VDD_M64_noxref_d N_VDD_M66_noxref_d \
 N_VDD_M67_noxref_s N_VDD_M68_noxref_d N_VDD_M70_noxref_d N_VDD_M72_noxref_d \
 N_VDD_M73_noxref_s N_VDD_M74_noxref_d N_VDD_M76_noxref_d N_VDD_M78_noxref_d \
 N_VDD_M79_noxref_s N_VDD_M80_noxref_d N_VDD_M82_noxref_d N_VDD_M84_noxref_d \
 N_VDD_M85_noxref_s N_VDD_M86_noxref_d N_VDD_M88_noxref_d N_VDD_M90_noxref_d \
 N_VDD_M91_noxref_s N_VDD_M92_noxref_d N_VDD_M94_noxref_d N_VDD_M96_noxref_d \
 N_VDD_M97_noxref_s N_VDD_M98_noxref_d N_VDD_M100_noxref_d N_VDD_M102_noxref_d \
 N_VDD_M103_noxref_s N_VDD_M104_noxref_d N_VDD_M106_noxref_d \
 N_VDD_M108_noxref_d N_VDD_M109_noxref_s N_VDD_M110_noxref_d \
 N_VDD_M112_noxref_d N_VDD_M114_noxref_d N_VDD_M115_noxref_s \
 N_VDD_M116_noxref_d N_VDD_M118_noxref_d N_VDD_M120_noxref_d \
 N_VDD_M121_noxref_s N_VDD_M122_noxref_d N_VDD_M124_noxref_d \
 N_VDD_M126_noxref_d N_VDD_M127_noxref_s N_VDD_M128_noxref_d \
 N_VDD_M130_noxref_d N_VDD_M132_noxref_d N_VDD_M133_noxref_s \
 N_VDD_M134_noxref_d N_VDD_M136_noxref_d N_VDD_M138_noxref_d \
 N_VDD_M139_noxref_s N_VDD_M140_noxref_d N_VDD_M142_noxref_d \
 N_VDD_M144_noxref_d N_VDD_M145_noxref_s N_VDD_M146_noxref_d \
 N_VDD_M148_noxref_d N_VDD_M150_noxref_d N_VDD_M151_noxref_s \
 N_VDD_M152_noxref_d N_VDD_M154_noxref_d N_VDD_M156_noxref_d \
 N_VDD_M157_noxref_s N_VDD_M158_noxref_d N_VDD_M160_noxref_d \
 N_VDD_M162_noxref_d N_VDD_M163_noxref_s N_VDD_M164_noxref_d \
 N_VDD_M166_noxref_d N_VDD_M168_noxref_d N_VDD_M169_noxref_s \
 N_VDD_M170_noxref_d N_VDD_M172_noxref_d N_VDD_M181_noxref_s \
 N_VDD_M182_noxref_d )  PM_TMRDFFSNRNQX1\%VDD
x_PM_TMRDFFSNRNQX1\%noxref_3 ( N_noxref_3_c_2293_n N_noxref_3_c_2294_n \
 N_noxref_3_c_2295_n N_noxref_3_c_2296_n N_noxref_3_c_2322_n \
 N_noxref_3_c_2326_n N_noxref_3_c_2328_n N_noxref_3_c_2332_n \
 N_noxref_3_c_2297_n N_noxref_3_c_2468_p N_noxref_3_c_2298_n \
 N_noxref_3_c_2299_n N_noxref_3_c_2300_n N_noxref_3_c_2480_p \
 N_noxref_3_c_2389_p N_noxref_3_M3_noxref_g N_noxref_3_M6_noxref_g \
 N_noxref_3_M67_noxref_g N_noxref_3_M68_noxref_g N_noxref_3_M73_noxref_g \
 N_noxref_3_M74_noxref_g N_noxref_3_c_2301_n N_noxref_3_c_2303_n \
 N_noxref_3_c_2304_n N_noxref_3_c_2305_n N_noxref_3_c_2306_n \
 N_noxref_3_c_2307_n N_noxref_3_c_2308_n N_noxref_3_c_2310_n \
 N_noxref_3_c_2393_p N_noxref_3_c_2351_n N_noxref_3_c_2311_n \
 N_noxref_3_c_2313_n N_noxref_3_c_2314_n N_noxref_3_c_2315_n \
 N_noxref_3_c_2316_n N_noxref_3_c_2317_n N_noxref_3_c_2318_n \
 N_noxref_3_c_2320_n N_noxref_3_c_2373_p N_noxref_3_c_2353_n \
 N_noxref_3_M2_noxref_d N_noxref_3_M61_noxref_d N_noxref_3_M63_noxref_d \
 N_noxref_3_M65_noxref_d )  PM_TMRDFFSNRNQX1\%noxref_3
x_PM_TMRDFFSNRNQX1\%noxref_4 ( N_noxref_4_c_2533_n N_noxref_4_c_2534_n \
 N_noxref_4_c_2549_n N_noxref_4_c_2553_n N_noxref_4_c_2555_n \
 N_noxref_4_c_2559_n N_noxref_4_c_2535_n N_noxref_4_c_2662_p \
 N_noxref_4_c_2536_n N_noxref_4_c_2537_n N_noxref_4_c_2677_p \
 N_noxref_4_c_2604_p N_noxref_4_M9_noxref_g N_noxref_4_M79_noxref_g \
 N_noxref_4_M80_noxref_g N_noxref_4_c_2538_n N_noxref_4_c_2540_n \
 N_noxref_4_c_2541_n N_noxref_4_c_2542_n N_noxref_4_c_2543_n \
 N_noxref_4_c_2544_n N_noxref_4_c_2545_n N_noxref_4_c_2547_n \
 N_noxref_4_c_2608_p N_noxref_4_c_2571_n N_noxref_4_M8_noxref_d \
 N_noxref_4_M73_noxref_d N_noxref_4_M75_noxref_d N_noxref_4_M77_noxref_d )  \
 PM_TMRDFFSNRNQX1\%noxref_4
x_PM_TMRDFFSNRNQX1\%noxref_5 ( N_noxref_5_c_2698_n N_noxref_5_c_2764_n \
 N_noxref_5_c_2699_n N_noxref_5_c_2767_n N_noxref_5_c_2700_n \
 N_noxref_5_c_2715_n N_noxref_5_c_2719_n N_noxref_5_c_2721_n \
 N_noxref_5_c_2725_n N_noxref_5_c_2701_n N_noxref_5_c_2881_p \
 N_noxref_5_c_2729_n N_noxref_5_c_2702_n N_noxref_5_c_2861_p \
 N_noxref_5_c_2823_p N_noxref_5_M2_noxref_g N_noxref_5_M12_noxref_g \
 N_noxref_5_M65_noxref_g N_noxref_5_M66_noxref_g N_noxref_5_M85_noxref_g \
 N_noxref_5_M86_noxref_g N_noxref_5_c_2783_n N_noxref_5_c_2784_n \
 N_noxref_5_c_2785_n N_noxref_5_c_2786_n N_noxref_5_c_2787_n \
 N_noxref_5_c_2789_n N_noxref_5_c_2790_n N_noxref_5_c_2703_n \
 N_noxref_5_c_2705_n N_noxref_5_c_2706_n N_noxref_5_c_2707_n \
 N_noxref_5_c_2708_n N_noxref_5_c_2709_n N_noxref_5_c_2710_n \
 N_noxref_5_c_2712_n N_noxref_5_c_2806_p N_noxref_5_c_2741_n \
 N_noxref_5_c_2792_n N_noxref_5_c_2793_n N_noxref_5_c_2795_n \
 N_noxref_5_M5_noxref_d N_noxref_5_M67_noxref_d N_noxref_5_M69_noxref_d \
 N_noxref_5_M71_noxref_d )  PM_TMRDFFSNRNQX1\%noxref_5
x_PM_TMRDFFSNRNQX1\%noxref_6 ( N_noxref_6_c_2965_n N_noxref_6_c_2966_n \
 N_noxref_6_c_2981_n N_noxref_6_c_2985_n N_noxref_6_c_2987_n \
 N_noxref_6_c_2991_n N_noxref_6_c_2967_n N_noxref_6_c_3071_p \
 N_noxref_6_c_2968_n N_noxref_6_c_2969_n N_noxref_6_c_3081_p \
 N_noxref_6_c_3036_p N_noxref_6_M15_noxref_g N_noxref_6_M91_noxref_g \
 N_noxref_6_M92_noxref_g N_noxref_6_c_2970_n N_noxref_6_c_2972_n \
 N_noxref_6_c_2973_n N_noxref_6_c_2974_n N_noxref_6_c_2975_n \
 N_noxref_6_c_2976_n N_noxref_6_c_2977_n N_noxref_6_c_2979_n \
 N_noxref_6_c_3040_p N_noxref_6_c_3003_n N_noxref_6_M14_noxref_d \
 N_noxref_6_M85_noxref_d N_noxref_6_M87_noxref_d N_noxref_6_M89_noxref_d )  \
 PM_TMRDFFSNRNQX1\%noxref_6
x_PM_TMRDFFSNRNQX1\%noxref_7 ( N_noxref_7_c_3179_n N_noxref_7_c_3181_n \
 N_noxref_7_c_3186_n N_noxref_7_c_3188_n N_noxref_7_c_3225_n \
 N_noxref_7_c_3227_n N_noxref_7_c_3129_n N_noxref_7_c_3130_n \
 N_noxref_7_c_3136_n N_noxref_7_c_3140_n N_noxref_7_c_3142_n \
 N_noxref_7_c_3146_n N_noxref_7_c_3131_n N_noxref_7_c_3352_p \
 N_noxref_7_c_3150_n N_noxref_7_c_3132_n N_noxref_7_c_3315_p \
 N_noxref_7_c_3363_p N_noxref_7_M5_noxref_g N_noxref_7_M8_noxref_g \
 N_noxref_7_M17_noxref_g N_noxref_7_M71_noxref_g N_noxref_7_M72_noxref_g \
 N_noxref_7_M77_noxref_g N_noxref_7_M78_noxref_g N_noxref_7_M95_noxref_g \
 N_noxref_7_M96_noxref_g N_noxref_7_c_3240_n N_noxref_7_c_3241_n \
 N_noxref_7_c_3242_n N_noxref_7_c_3243_n N_noxref_7_c_3244_n \
 N_noxref_7_c_3246_n N_noxref_7_c_3247_n N_noxref_7_c_3201_n \
 N_noxref_7_c_3202_n N_noxref_7_c_3203_n N_noxref_7_c_3204_n \
 N_noxref_7_c_3205_n N_noxref_7_c_3207_n N_noxref_7_c_3208_n \
 N_noxref_7_c_3278_p N_noxref_7_c_3279_p N_noxref_7_c_3280_p \
 N_noxref_7_c_3281_p N_noxref_7_c_3269_p N_noxref_7_c_3283_p \
 N_noxref_7_c_3270_p N_noxref_7_c_3249_n N_noxref_7_c_3250_n \
 N_noxref_7_c_3252_n N_noxref_7_c_3210_n N_noxref_7_c_3211_n \
 N_noxref_7_c_3213_n N_noxref_7_c_3273_p N_noxref_7_c_3274_p \
 N_noxref_7_c_3264_p N_noxref_7_M11_noxref_d N_noxref_7_M79_noxref_d \
 N_noxref_7_M81_noxref_d N_noxref_7_M83_noxref_d )  PM_TMRDFFSNRNQX1\%noxref_7
x_PM_TMRDFFSNRNQX1\%noxref_8 ( N_noxref_8_c_3626_n N_noxref_8_c_3624_n \
 N_noxref_8_c_3495_n N_noxref_8_c_3546_n N_noxref_8_c_3840_p \
 N_noxref_8_c_3549_n N_noxref_8_c_3742_p N_noxref_8_c_3563_n \
 N_noxref_8_c_3568_n N_noxref_8_c_3467_n N_noxref_8_c_3573_n \
 N_noxref_8_c_3577_n N_noxref_8_c_3579_n N_noxref_8_c_3583_n \
 N_noxref_8_c_3468_n N_noxref_8_c_3877_p N_noxref_8_c_3587_n \
 N_noxref_8_c_3469_n N_noxref_8_c_3472_n N_noxref_8_c_3958_p \
 N_noxref_8_c_3676_n N_noxref_8_M14_noxref_g N_noxref_8_M54_noxref_g \
 N_noxref_8_M56_noxref_g N_noxref_8_M89_noxref_g N_noxref_8_M90_noxref_g \
 N_noxref_8_M169_noxref_g N_noxref_8_M170_noxref_g N_noxref_8_M173_noxref_g \
 N_noxref_8_M174_noxref_g N_noxref_8_c_3643_n N_noxref_8_c_3644_n \
 N_noxref_8_c_3645_n N_noxref_8_c_3646_n N_noxref_8_c_3647_n \
 N_noxref_8_c_3649_n N_noxref_8_c_3650_n N_noxref_8_c_3474_n \
 N_noxref_8_c_3476_n N_noxref_8_c_3477_n N_noxref_8_c_3478_n \
 N_noxref_8_c_3479_n N_noxref_8_c_3480_n N_noxref_8_c_3757_p \
 N_noxref_8_c_3606_n N_noxref_8_c_3481_n N_noxref_8_c_3483_n \
 N_noxref_8_c_3484_n N_noxref_8_c_3486_n N_noxref_8_c_4032_p \
 N_noxref_8_c_3487_n N_noxref_8_c_3488_n N_noxref_8_c_3489_n \
 N_noxref_8_c_3490_n N_noxref_8_c_3492_n N_noxref_8_c_3652_n \
 N_noxref_8_c_3653_n N_noxref_8_c_3655_n N_noxref_8_c_3493_n \
 N_noxref_8_c_3608_n N_noxref_8_M17_noxref_d N_noxref_8_M91_noxref_d \
 N_noxref_8_M93_noxref_d N_noxref_8_M95_noxref_d )  PM_TMRDFFSNRNQX1\%noxref_8
x_PM_TMRDFFSNRNQX1\%noxref_9 ( N_noxref_9_c_4096_n N_noxref_9_c_4097_n \
 N_noxref_9_c_4098_n N_noxref_9_c_4099_n N_noxref_9_c_4125_n \
 N_noxref_9_c_4129_n N_noxref_9_c_4131_n N_noxref_9_c_4135_n \
 N_noxref_9_c_4100_n N_noxref_9_c_4277_p N_noxref_9_c_4101_n \
 N_noxref_9_c_4102_n N_noxref_9_c_4103_n N_noxref_9_c_4289_p \
 N_noxref_9_c_4205_p N_noxref_9_M21_noxref_g N_noxref_9_M24_noxref_g \
 N_noxref_9_M103_noxref_g N_noxref_9_M104_noxref_g N_noxref_9_M109_noxref_g \
 N_noxref_9_M110_noxref_g N_noxref_9_c_4104_n N_noxref_9_c_4106_n \
 N_noxref_9_c_4107_n N_noxref_9_c_4108_n N_noxref_9_c_4109_n \
 N_noxref_9_c_4110_n N_noxref_9_c_4111_n N_noxref_9_c_4113_n \
 N_noxref_9_c_4182_n N_noxref_9_c_4154_n N_noxref_9_c_4114_n \
 N_noxref_9_c_4116_n N_noxref_9_c_4117_n N_noxref_9_c_4118_n \
 N_noxref_9_c_4119_n N_noxref_9_c_4120_n N_noxref_9_c_4121_n \
 N_noxref_9_c_4123_n N_noxref_9_c_4184_n N_noxref_9_c_4156_n \
 N_noxref_9_M20_noxref_d N_noxref_9_M97_noxref_d N_noxref_9_M99_noxref_d \
 N_noxref_9_M101_noxref_d )  PM_TMRDFFSNRNQX1\%noxref_9
x_PM_TMRDFFSNRNQX1\%noxref_10 ( N_noxref_10_c_4349_n N_noxref_10_c_4350_n \
 N_noxref_10_c_4365_n N_noxref_10_c_4369_n N_noxref_10_c_4371_n \
 N_noxref_10_c_4375_n N_noxref_10_c_4351_n N_noxref_10_c_4482_p \
 N_noxref_10_c_4352_n N_noxref_10_c_4353_n N_noxref_10_c_4497_p \
 N_noxref_10_c_4427_p N_noxref_10_M27_noxref_g N_noxref_10_M115_noxref_g \
 N_noxref_10_M116_noxref_g N_noxref_10_c_4354_n N_noxref_10_c_4356_n \
 N_noxref_10_c_4357_n N_noxref_10_c_4358_n N_noxref_10_c_4359_n \
 N_noxref_10_c_4360_n N_noxref_10_c_4361_n N_noxref_10_c_4363_n \
 N_noxref_10_c_4409_n N_noxref_10_c_4387_n N_noxref_10_M26_noxref_d \
 N_noxref_10_M109_noxref_d N_noxref_10_M111_noxref_d N_noxref_10_M113_noxref_d \
 )  PM_TMRDFFSNRNQX1\%noxref_10
x_PM_TMRDFFSNRNQX1\%noxref_11 ( N_noxref_11_c_4588_n N_noxref_11_c_4576_n \
 N_noxref_11_c_4595_n N_noxref_11_c_4597_n N_noxref_11_c_4518_n \
 N_noxref_11_c_4533_n N_noxref_11_c_4537_n N_noxref_11_c_4539_n \
 N_noxref_11_c_4543_n N_noxref_11_c_4519_n N_noxref_11_c_4709_p \
 N_noxref_11_c_4547_n N_noxref_11_c_4520_n N_noxref_11_c_4703_p \
 N_noxref_11_c_4653_p N_noxref_11_M20_noxref_g N_noxref_11_M30_noxref_g \
 N_noxref_11_M101_noxref_g N_noxref_11_M102_noxref_g N_noxref_11_M121_noxref_g \
 N_noxref_11_M122_noxref_g N_noxref_11_c_4613_n N_noxref_11_c_4614_n \
 N_noxref_11_c_4615_n N_noxref_11_c_4616_n N_noxref_11_c_4617_n \
 N_noxref_11_c_4619_n N_noxref_11_c_4620_n N_noxref_11_c_4521_n \
 N_noxref_11_c_4523_n N_noxref_11_c_4524_n N_noxref_11_c_4525_n \
 N_noxref_11_c_4526_n N_noxref_11_c_4527_n N_noxref_11_c_4528_n \
 N_noxref_11_c_4530_n N_noxref_11_c_4585_n N_noxref_11_c_4559_n \
 N_noxref_11_c_4622_n N_noxref_11_c_4623_n N_noxref_11_c_4587_n \
 N_noxref_11_M23_noxref_d N_noxref_11_M103_noxref_d N_noxref_11_M105_noxref_d \
 N_noxref_11_M107_noxref_d )  PM_TMRDFFSNRNQX1\%noxref_11
x_PM_TMRDFFSNRNQX1\%noxref_12 ( N_noxref_12_c_4799_n N_noxref_12_c_4800_n \
 N_noxref_12_c_4815_n N_noxref_12_c_4819_n N_noxref_12_c_4821_n \
 N_noxref_12_c_4825_n N_noxref_12_c_4801_n N_noxref_12_c_4909_p \
 N_noxref_12_c_4802_n N_noxref_12_c_4803_n N_noxref_12_c_4919_p \
 N_noxref_12_c_4877_p N_noxref_12_M33_noxref_g N_noxref_12_M127_noxref_g \
 N_noxref_12_M128_noxref_g N_noxref_12_c_4804_n N_noxref_12_c_4806_n \
 N_noxref_12_c_4807_n N_noxref_12_c_4808_n N_noxref_12_c_4809_n \
 N_noxref_12_c_4810_n N_noxref_12_c_4811_n N_noxref_12_c_4813_n \
 N_noxref_12_c_4859_n N_noxref_12_c_4837_n N_noxref_12_M32_noxref_d \
 N_noxref_12_M121_noxref_d N_noxref_12_M123_noxref_d N_noxref_12_M125_noxref_d \
 )  PM_TMRDFFSNRNQX1\%noxref_12
x_PM_TMRDFFSNRNQX1\%noxref_13 ( N_noxref_13_c_5031_n N_noxref_13_c_5071_n \
 N_noxref_13_c_5036_n N_noxref_13_c_5038_n N_noxref_13_c_5075_n \
 N_noxref_13_c_5077_n N_noxref_13_c_4967_n N_noxref_13_c_4968_n \
 N_noxref_13_c_4974_n N_noxref_13_c_4978_n N_noxref_13_c_4980_n \
 N_noxref_13_c_4984_n N_noxref_13_c_4969_n N_noxref_13_c_5196_p \
 N_noxref_13_c_4988_n N_noxref_13_c_4970_n N_noxref_13_c_5185_p \
 N_noxref_13_c_5207_p N_noxref_13_M23_noxref_g N_noxref_13_M26_noxref_g \
 N_noxref_13_M35_noxref_g N_noxref_13_M107_noxref_g N_noxref_13_M108_noxref_g \
 N_noxref_13_M113_noxref_g N_noxref_13_M114_noxref_g N_noxref_13_M131_noxref_g \
 N_noxref_13_M132_noxref_g N_noxref_13_c_5090_n N_noxref_13_c_5091_n \
 N_noxref_13_c_5092_n N_noxref_13_c_5093_n N_noxref_13_c_5094_n \
 N_noxref_13_c_5096_n N_noxref_13_c_5097_n N_noxref_13_c_5051_n \
 N_noxref_13_c_5052_n N_noxref_13_c_5053_n N_noxref_13_c_5054_n \
 N_noxref_13_c_5055_n N_noxref_13_c_5057_n N_noxref_13_c_5058_n \
 N_noxref_13_c_5127_p N_noxref_13_c_5128_p N_noxref_13_c_5129_p \
 N_noxref_13_c_5130_p N_noxref_13_c_5118_p N_noxref_13_c_5132_p \
 N_noxref_13_c_5119_p N_noxref_13_c_5099_n N_noxref_13_c_5100_n \
 N_noxref_13_c_5028_n N_noxref_13_c_5060_n N_noxref_13_c_5061_n \
 N_noxref_13_c_5029_n N_noxref_13_c_5122_p N_noxref_13_c_5123_p \
 N_noxref_13_c_5030_n N_noxref_13_M29_noxref_d N_noxref_13_M115_noxref_d \
 N_noxref_13_M117_noxref_d N_noxref_13_M119_noxref_d )  \
 PM_TMRDFFSNRNQX1\%noxref_13
x_PM_TMRDFFSNRNQX1\%noxref_14 ( N_noxref_14_c_5433_n N_noxref_14_c_5431_n \
 N_noxref_14_c_5325_n N_noxref_14_c_5469_n N_noxref_14_c_5521_p \
 N_noxref_14_c_5314_n N_noxref_14_c_5390_n N_noxref_14_c_5315_n \
 N_noxref_14_c_5335_n N_noxref_14_c_5317_n N_noxref_14_c_5337_n \
 N_noxref_14_c_5341_n N_noxref_14_c_5343_n N_noxref_14_c_5347_n \
 N_noxref_14_c_5318_n N_noxref_14_c_5537_p N_noxref_14_c_5351_n \
 N_noxref_14_c_5352_n N_noxref_14_c_5319_n N_noxref_14_c_5321_n \
 N_noxref_14_c_5586_p N_noxref_14_c_5482_n N_noxref_14_c_5643_p \
 N_noxref_14_M32_noxref_g N_noxref_14_M55_noxref_g N_noxref_14_M59_noxref_g \
 N_noxref_14_M125_noxref_g N_noxref_14_M126_noxref_g N_noxref_14_M171_noxref_g \
 N_noxref_14_M172_noxref_g N_noxref_14_M179_noxref_g N_noxref_14_M180_noxref_g \
 N_noxref_14_c_5450_n N_noxref_14_c_5451_n N_noxref_14_c_5452_n \
 N_noxref_14_c_5453_n N_noxref_14_c_5454_n N_noxref_14_c_5456_n \
 N_noxref_14_c_5457_n N_noxref_14_c_5413_n N_noxref_14_c_5416_n \
 N_noxref_14_c_5418_n N_noxref_14_c_5368_n N_noxref_14_c_5674_p \
 N_noxref_14_c_5619_p N_noxref_14_c_5422_n N_noxref_14_c_5423_n \
 N_noxref_14_c_5639_p N_noxref_14_c_5650_p N_noxref_14_c_5641_p \
 N_noxref_14_c_5701_p N_noxref_14_c_5682_p N_noxref_14_c_5652_p \
 N_noxref_14_c_5649_p N_noxref_14_c_5653_p N_noxref_14_c_5459_n \
 N_noxref_14_c_5460_n N_noxref_14_c_5424_n N_noxref_14_c_5323_n \
 N_noxref_14_c_5752_p N_noxref_14_c_5369_n N_noxref_14_c_5624_p \
 N_noxref_14_c_5697_p N_noxref_14_c_5633_p N_noxref_14_M35_noxref_d \
 N_noxref_14_M127_noxref_d N_noxref_14_M129_noxref_d N_noxref_14_M131_noxref_d \
 )  PM_TMRDFFSNRNQX1\%noxref_14
x_PM_TMRDFFSNRNQX1\%D ( N_D_c_5764_n N_D_c_5765_n N_D_c_5815_n N_D_c_5821_n D \
 D D D D D D D D D D D D D N_D_c_5766_n N_D_c_5767_n N_D_c_5768_n \
 N_D_M0_noxref_g N_D_M18_noxref_g N_D_M36_noxref_g N_D_M61_noxref_g \
 N_D_M62_noxref_g N_D_M97_noxref_g N_D_M98_noxref_g N_D_M133_noxref_g \
 N_D_M134_noxref_g N_D_c_5769_n N_D_c_5771_n N_D_c_5772_n N_D_c_5773_n \
 N_D_c_5774_n N_D_c_5775_n N_D_c_5776_n N_D_c_5778_n N_D_c_5863_n N_D_c_5843_n \
 N_D_c_5779_n N_D_c_5781_n N_D_c_5782_n N_D_c_5783_n N_D_c_5784_n N_D_c_5785_n \
 N_D_c_5786_n N_D_c_5788_n N_D_c_5905_n N_D_c_5845_n N_D_c_5789_n N_D_c_5791_n \
 N_D_c_5792_n N_D_c_5793_n N_D_c_5794_n N_D_c_5795_n N_D_c_5796_n N_D_c_5798_n \
 N_D_c_5907_n N_D_c_5847_n )  PM_TMRDFFSNRNQX1\%D
x_PM_TMRDFFSNRNQX1\%noxref_16 ( N_noxref_16_c_6105_n N_noxref_16_c_6106_n \
 N_noxref_16_c_6107_n N_noxref_16_c_6108_n N_noxref_16_c_6134_n \
 N_noxref_16_c_6138_n N_noxref_16_c_6140_n N_noxref_16_c_6144_n \
 N_noxref_16_c_6109_n N_noxref_16_c_6281_p N_noxref_16_c_6110_n \
 N_noxref_16_c_6111_n N_noxref_16_c_6112_n N_noxref_16_c_6293_p \
 N_noxref_16_c_6250_p N_noxref_16_M39_noxref_g N_noxref_16_M42_noxref_g \
 N_noxref_16_M139_noxref_g N_noxref_16_M140_noxref_g N_noxref_16_M145_noxref_g \
 N_noxref_16_M146_noxref_g N_noxref_16_c_6113_n N_noxref_16_c_6115_n \
 N_noxref_16_c_6116_n N_noxref_16_c_6117_n N_noxref_16_c_6118_n \
 N_noxref_16_c_6119_n N_noxref_16_c_6120_n N_noxref_16_c_6122_n \
 N_noxref_16_c_6190_n N_noxref_16_c_6163_n N_noxref_16_c_6123_n \
 N_noxref_16_c_6125_n N_noxref_16_c_6126_n N_noxref_16_c_6127_n \
 N_noxref_16_c_6128_n N_noxref_16_c_6129_n N_noxref_16_c_6130_n \
 N_noxref_16_c_6132_n N_noxref_16_c_6192_n N_noxref_16_c_6165_n \
 N_noxref_16_M38_noxref_d N_noxref_16_M133_noxref_d N_noxref_16_M135_noxref_d \
 N_noxref_16_M137_noxref_d )  PM_TMRDFFSNRNQX1\%noxref_16
x_PM_TMRDFFSNRNQX1\%noxref_17 ( N_noxref_17_c_6358_n N_noxref_17_c_6359_n \
 N_noxref_17_c_6374_n N_noxref_17_c_6378_n N_noxref_17_c_6380_n \
 N_noxref_17_c_6384_n N_noxref_17_c_6360_n N_noxref_17_c_6459_p \
 N_noxref_17_c_6361_n N_noxref_17_c_6362_n N_noxref_17_c_6474_p \
 N_noxref_17_c_6482_p N_noxref_17_M45_noxref_g N_noxref_17_M151_noxref_g \
 N_noxref_17_M152_noxref_g N_noxref_17_c_6363_n N_noxref_17_c_6365_n \
 N_noxref_17_c_6366_n N_noxref_17_c_6367_n N_noxref_17_c_6368_n \
 N_noxref_17_c_6369_n N_noxref_17_c_6370_n N_noxref_17_c_6372_n \
 N_noxref_17_c_6418_n N_noxref_17_c_6396_n N_noxref_17_M44_noxref_d \
 N_noxref_17_M145_noxref_d N_noxref_17_M147_noxref_d N_noxref_17_M149_noxref_d \
 )  PM_TMRDFFSNRNQX1\%noxref_17
x_PM_TMRDFFSNRNQX1\%CLK ( N_CLK_c_6532_n N_CLK_c_6543_n N_CLK_c_6544_n \
 N_CLK_c_6557_n N_CLK_c_6558_n N_CLK_c_6732_n N_CLK_c_6560_n N_CLK_c_6734_n \
 N_CLK_c_6564_n N_CLK_c_6738_n CLK CLK CLK CLK CLK CLK CLK CLK CLK CLK CLK CLK \
 N_CLK_c_6526_n N_CLK_c_6527_n N_CLK_c_6528_n N_CLK_c_6529_n N_CLK_c_6530_n \
 N_CLK_c_6531_n N_CLK_M4_noxref_g N_CLK_M10_noxref_g N_CLK_M22_noxref_g \
 N_CLK_M28_noxref_g N_CLK_M40_noxref_g N_CLK_M46_noxref_g N_CLK_M69_noxref_g \
 N_CLK_M70_noxref_g N_CLK_M81_noxref_g N_CLK_M82_noxref_g N_CLK_M105_noxref_g \
 N_CLK_M106_noxref_g N_CLK_M117_noxref_g N_CLK_M118_noxref_g \
 N_CLK_M141_noxref_g N_CLK_M142_noxref_g N_CLK_M153_noxref_g \
 N_CLK_M154_noxref_g N_CLK_c_6611_n N_CLK_c_6614_n N_CLK_c_7129_p \
 N_CLK_c_7136_p N_CLK_c_6616_n N_CLK_c_6617_n N_CLK_c_6618_n N_CLK_c_6619_n \
 N_CLK_c_6669_n N_CLK_c_6640_n N_CLK_c_6643_n N_CLK_c_7149_p N_CLK_c_7156_p \
 N_CLK_c_6645_n N_CLK_c_6646_n N_CLK_c_6647_n N_CLK_c_6648_n N_CLK_c_6718_n \
 N_CLK_c_6778_n N_CLK_c_6781_n N_CLK_c_7169_p N_CLK_c_7176_p N_CLK_c_6783_n \
 N_CLK_c_6784_n N_CLK_c_6785_n N_CLK_c_6786_n N_CLK_c_6753_n N_CLK_c_6804_n \
 N_CLK_c_6807_n N_CLK_c_7189_p N_CLK_c_7196_p N_CLK_c_6809_n N_CLK_c_6810_n \
 N_CLK_c_6811_n N_CLK_c_6812_n N_CLK_c_6754_n N_CLK_c_6928_n N_CLK_c_6931_n \
 N_CLK_c_7209_p N_CLK_c_7216_p N_CLK_c_6933_n N_CLK_c_6934_n N_CLK_c_6935_n \
 N_CLK_c_6936_n N_CLK_c_6755_n N_CLK_c_6953_n N_CLK_c_6956_n N_CLK_c_7229_p \
 N_CLK_c_7236_p N_CLK_c_6958_n N_CLK_c_6959_n N_CLK_c_6960_n N_CLK_c_6961_n \
 N_CLK_c_6756_n N_CLK_c_6621_n N_CLK_c_6650_n N_CLK_c_6757_n N_CLK_c_6758_n \
 N_CLK_c_6759_n N_CLK_c_6760_n )  PM_TMRDFFSNRNQX1\%CLK
x_PM_TMRDFFSNRNQX1\%noxref_19 ( N_noxref_19_c_7307_n N_noxref_19_c_7309_n \
 N_noxref_19_c_7311_n N_noxref_19_c_7312_n N_noxref_19_c_7241_n \
 N_noxref_19_c_7256_n N_noxref_19_c_7260_n N_noxref_19_c_7262_n \
 N_noxref_19_c_7266_n N_noxref_19_c_7242_n N_noxref_19_c_7384_p \
 N_noxref_19_c_7270_n N_noxref_19_c_7243_n N_noxref_19_c_7376_n \
 N_noxref_19_c_7463_p N_noxref_19_M38_noxref_g N_noxref_19_M48_noxref_g \
 N_noxref_19_M137_noxref_g N_noxref_19_M138_noxref_g N_noxref_19_M157_noxref_g \
 N_noxref_19_M158_noxref_g N_noxref_19_c_7342_n N_noxref_19_c_7343_n \
 N_noxref_19_c_7344_n N_noxref_19_c_7345_n N_noxref_19_c_7346_n \
 N_noxref_19_c_7348_n N_noxref_19_c_7349_n N_noxref_19_c_7244_n \
 N_noxref_19_c_7246_n N_noxref_19_c_7247_n N_noxref_19_c_7248_n \
 N_noxref_19_c_7249_n N_noxref_19_c_7250_n N_noxref_19_c_7251_n \
 N_noxref_19_c_7253_n N_noxref_19_c_7403_p N_noxref_19_c_7282_n \
 N_noxref_19_c_7351_n N_noxref_19_c_7352_n N_noxref_19_c_7306_n \
 N_noxref_19_M41_noxref_d N_noxref_19_M139_noxref_d N_noxref_19_M141_noxref_d \
 N_noxref_19_M143_noxref_d )  PM_TMRDFFSNRNQX1\%noxref_19
x_PM_TMRDFFSNRNQX1\%RN ( N_RN_c_7515_n N_RN_c_7526_n N_RN_c_7527_n \
 N_RN_c_7531_n N_RN_c_7532_n N_RN_c_7539_n N_RN_c_7540_n N_RN_c_7551_n \
 N_RN_c_7552_n N_RN_c_7556_n N_RN_c_7557_n N_RN_c_7564_n N_RN_c_7565_n \
 N_RN_c_7576_n N_RN_c_7577_n N_RN_c_7581_n RN RN RN RN RN RN RN RN RN RN RN RN \
 RN RN RN RN RN RN RN RN RN RN RN RN RN RN RN RN RN N_RN_c_7582_n \
 N_RN_c_7583_n N_RN_c_7584_n N_RN_c_7585_n N_RN_c_7586_n N_RN_c_7587_n \
 N_RN_c_7588_n N_RN_c_7589_n N_RN_c_7590_n N_RN_M1_noxref_g N_RN_M11_noxref_g \
 N_RN_M13_noxref_g N_RN_M19_noxref_g N_RN_M29_noxref_g N_RN_M31_noxref_g \
 N_RN_M37_noxref_g N_RN_M47_noxref_g N_RN_M49_noxref_g N_RN_M63_noxref_g \
 N_RN_M64_noxref_g N_RN_M83_noxref_g N_RN_M84_noxref_g N_RN_M87_noxref_g \
 N_RN_M88_noxref_g N_RN_M99_noxref_g N_RN_M100_noxref_g N_RN_M119_noxref_g \
 N_RN_M120_noxref_g N_RN_M123_noxref_g N_RN_M124_noxref_g N_RN_M135_noxref_g \
 N_RN_M136_noxref_g N_RN_M155_noxref_g N_RN_M156_noxref_g N_RN_M159_noxref_g \
 N_RN_M160_noxref_g N_RN_c_8042_n N_RN_c_8045_n N_RN_c_8361_p N_RN_c_8369_p \
 N_RN_c_7698_n N_RN_c_7699_n N_RN_c_7700_n N_RN_c_7701_n N_RN_c_7655_n \
 N_RN_c_7760_n N_RN_c_7761_n N_RN_c_7762_n N_RN_c_7763_n N_RN_c_7764_n \
 N_RN_c_7766_n N_RN_c_7767_n N_RN_c_7705_n N_RN_c_7708_n N_RN_c_8422_p \
 N_RN_c_8430_p N_RN_c_7710_n N_RN_c_7711_n N_RN_c_7712_n N_RN_c_7713_n \
 N_RN_c_7732_n N_RN_c_8053_n N_RN_c_8056_n N_RN_c_8459_p N_RN_c_8467_p \
 N_RN_c_7888_n N_RN_c_7889_n N_RN_c_7890_n N_RN_c_7891_n N_RN_c_7816_n \
 N_RN_c_7949_n N_RN_c_7950_n N_RN_c_7951_n N_RN_c_7952_n N_RN_c_7953_n \
 N_RN_c_7955_n N_RN_c_7956_n N_RN_c_7895_n N_RN_c_7898_n N_RN_c_8520_p \
 N_RN_c_8528_p N_RN_c_7900_n N_RN_c_7901_n N_RN_c_7902_n N_RN_c_7903_n \
 N_RN_c_7817_n N_RN_c_8063_n N_RN_c_8066_n N_RN_c_8557_p N_RN_c_8565_p \
 N_RN_c_8068_n N_RN_c_8069_n N_RN_c_8070_n N_RN_c_8071_n N_RN_c_7818_n \
 N_RN_c_8163_n N_RN_c_8164_n N_RN_c_8165_n N_RN_c_8322_p N_RN_c_8303_p \
 N_RN_c_8324_p N_RN_c_8304_p N_RN_c_8228_n N_RN_c_8231_n N_RN_c_8614_p \
 N_RN_c_8621_p N_RN_c_8233_n N_RN_c_8234_n N_RN_c_8235_n N_RN_c_8236_n \
 N_RN_c_7819_n N_RN_c_7656_n N_RN_c_7769_n N_RN_c_7770_n N_RN_c_7772_n \
 N_RN_c_7717_n N_RN_c_7822_n N_RN_c_7958_n N_RN_c_7959_n N_RN_c_7823_n \
 N_RN_c_7824_n N_RN_c_7825_n N_RN_c_8184_n N_RN_c_8186_n N_RN_c_7826_n \
 N_RN_c_7829_n )  PM_TMRDFFSNRNQX1\%RN
x_PM_TMRDFFSNRNQX1\%noxref_21 ( N_noxref_21_c_8626_n N_noxref_21_c_8627_n \
 N_noxref_21_c_8642_n N_noxref_21_c_8646_n N_noxref_21_c_8648_n \
 N_noxref_21_c_8652_n N_noxref_21_c_8628_n N_noxref_21_c_8735_p \
 N_noxref_21_c_8629_n N_noxref_21_c_8630_n N_noxref_21_c_8698_n \
 N_noxref_21_c_8743_p N_noxref_21_M51_noxref_g N_noxref_21_M163_noxref_g \
 N_noxref_21_M164_noxref_g N_noxref_21_c_8631_n N_noxref_21_c_8633_n \
 N_noxref_21_c_8634_n N_noxref_21_c_8635_n N_noxref_21_c_8636_n \
 N_noxref_21_c_8637_n N_noxref_21_c_8638_n N_noxref_21_c_8640_n \
 N_noxref_21_c_8709_p N_noxref_21_c_8664_n N_noxref_21_M50_noxref_d \
 N_noxref_21_M157_noxref_d N_noxref_21_M159_noxref_d N_noxref_21_M161_noxref_d \
 )  PM_TMRDFFSNRNQX1\%noxref_21
x_PM_TMRDFFSNRNQX1\%SN ( N_SN_c_8787_n N_SN_c_8842_n N_SN_c_8790_n \
 N_SN_c_8885_n N_SN_c_8793_n N_SN_c_8994_n N_SN_c_8796_n N_SN_c_9043_n \
 N_SN_c_8799_n N_SN_c_9155_n SN SN SN SN SN SN SN SN SN SN N_SN_c_8803_n \
 N_SN_c_8804_n N_SN_c_8805_n N_SN_c_8806_n N_SN_c_8807_n N_SN_c_8808_n \
 N_SN_M7_noxref_g N_SN_M16_noxref_g N_SN_M25_noxref_g N_SN_M34_noxref_g \
 N_SN_M43_noxref_g N_SN_M52_noxref_g N_SN_M75_noxref_g N_SN_M76_noxref_g \
 N_SN_M93_noxref_g N_SN_M94_noxref_g N_SN_M111_noxref_g N_SN_M112_noxref_g \
 N_SN_M129_noxref_g N_SN_M130_noxref_g N_SN_M147_noxref_g N_SN_M148_noxref_g \
 N_SN_M165_noxref_g N_SN_M166_noxref_g N_SN_c_8851_n N_SN_c_8854_n \
 N_SN_c_9358_p N_SN_c_9365_p N_SN_c_8856_n N_SN_c_8857_n N_SN_c_8858_n \
 N_SN_c_8859_n N_SN_c_8874_n N_SN_c_8895_n N_SN_c_8898_n N_SN_c_9378_p \
 N_SN_c_9385_p N_SN_c_8900_n N_SN_c_8901_n N_SN_c_8902_n N_SN_c_8903_n \
 N_SN_c_8949_n N_SN_c_9003_n N_SN_c_9006_n N_SN_c_9398_p N_SN_c_9405_p \
 N_SN_c_9008_n N_SN_c_9009_n N_SN_c_9010_n N_SN_c_9011_n N_SN_c_8978_n \
 N_SN_c_9053_n N_SN_c_9056_n N_SN_c_9418_p N_SN_c_9425_p N_SN_c_9058_n \
 N_SN_c_9059_n N_SN_c_9060_n N_SN_c_9061_n N_SN_c_8979_n N_SN_c_9164_n \
 N_SN_c_9167_n N_SN_c_9438_p N_SN_c_9445_p N_SN_c_9169_n N_SN_c_9170_n \
 N_SN_c_9171_n N_SN_c_9172_n N_SN_c_8980_n N_SN_c_9278_n N_SN_c_9281_n \
 N_SN_c_9462_p N_SN_c_9469_p N_SN_c_9283_n N_SN_c_9284_n N_SN_c_9285_n \
 N_SN_c_9286_n N_SN_c_8981_n N_SN_c_8861_n N_SN_c_8905_n N_SN_c_8983_n \
 N_SN_c_8984_n N_SN_c_8985_n N_SN_c_8986_n )  PM_TMRDFFSNRNQX1\%SN
x_PM_TMRDFFSNRNQX1\%noxref_23 ( N_noxref_23_c_9544_n N_noxref_23_c_9545_n \
 N_noxref_23_c_9524_n N_noxref_23_c_9549_n N_noxref_23_c_9526_n \
 N_noxref_23_c_9527_n N_noxref_23_c_9474_n N_noxref_23_c_9475_n \
 N_noxref_23_c_9481_n N_noxref_23_c_9485_n N_noxref_23_c_9487_n \
 N_noxref_23_c_9491_n N_noxref_23_c_9476_n N_noxref_23_c_9677_n \
 N_noxref_23_c_9495_n N_noxref_23_c_9477_n N_noxref_23_c_9611_n \
 N_noxref_23_c_9685_n N_noxref_23_M41_noxref_g N_noxref_23_M44_noxref_g \
 N_noxref_23_M53_noxref_g N_noxref_23_M143_noxref_g N_noxref_23_M144_noxref_g \
 N_noxref_23_M149_noxref_g N_noxref_23_M150_noxref_g N_noxref_23_M167_noxref_g \
 N_noxref_23_M168_noxref_g N_noxref_23_c_9615_n N_noxref_23_c_9616_n \
 N_noxref_23_c_9617_n N_noxref_23_c_9654_n N_noxref_23_c_9655_n \
 N_noxref_23_c_9657_n N_noxref_23_c_9658_n N_noxref_23_c_9578_n \
 N_noxref_23_c_9579_n N_noxref_23_c_9580_n N_noxref_23_c_9581_n \
 N_noxref_23_c_9582_n N_noxref_23_c_9584_n N_noxref_23_c_9585_n \
 N_noxref_23_c_9738_n N_noxref_23_c_9739_n N_noxref_23_c_9740_n \
 N_noxref_23_c_9776_p N_noxref_23_c_9755_p N_noxref_23_c_9778_p \
 N_noxref_23_c_9765_p N_noxref_23_c_9618_n N_noxref_23_c_9620_n \
 N_noxref_23_c_9541_n N_noxref_23_c_9587_n N_noxref_23_c_9588_n \
 N_noxref_23_c_9542_n N_noxref_23_c_9747_n N_noxref_23_c_9749_n \
 N_noxref_23_c_9543_n N_noxref_23_M47_noxref_d N_noxref_23_M151_noxref_d \
 N_noxref_23_M153_noxref_d N_noxref_23_M155_noxref_d )  \
 PM_TMRDFFSNRNQX1\%noxref_23
x_PM_TMRDFFSNRNQX1\%noxref_24 ( N_noxref_24_c_9819_n N_noxref_24_c_9825_n \
 N_noxref_24_c_9830_n N_noxref_24_c_9834_n N_noxref_24_c_9836_n \
 N_noxref_24_c_9839_n N_noxref_24_c_9865_n N_noxref_24_c_9841_n \
 N_noxref_24_c_9884_p N_noxref_24_M169_noxref_d N_noxref_24_M171_noxref_d \
 N_noxref_24_M173_noxref_s N_noxref_24_M174_noxref_d N_noxref_24_M176_noxref_d \
 )  PM_TMRDFFSNRNQX1\%noxref_24