// File: TMRDFFSNQX1.spi.TMRDFFSNQX1.pxi
// Created: Tue Oct 15 15:52:45 2024
// 
simulator lang=spectre
x_PM_TMRDFFSNQX1\%GND ( GND N_GND_c_24_p N_GND_c_249_p N_GND_c_1_p \
 N_GND_c_25_p N_GND_c_26_p N_GND_c_31_p N_GND_c_32_p N_GND_c_58_p N_GND_c_69_p \
 N_GND_c_76_p N_GND_c_84_p N_GND_c_91_p N_GND_c_98_p N_GND_c_105_p \
 N_GND_c_259_p N_GND_c_266_p N_GND_c_128_p N_GND_c_135_p N_GND_c_138_p \
 N_GND_c_145_p N_GND_c_156_p N_GND_c_163_p N_GND_c_171_p N_GND_c_178_p \
 N_GND_c_188_p N_GND_c_195_p N_GND_c_269_p N_GND_c_276_p N_GND_c_288_p \
 N_GND_c_295_p N_GND_c_298_p N_GND_c_305_p N_GND_c_316_p N_GND_c_323_p \
 N_GND_c_340_p N_GND_c_347_p N_GND_c_354_p N_GND_c_212_p N_GND_c_213_p \
 N_GND_c_451_p N_GND_c_454_p N_GND_c_460_p N_GND_c_476_p N_GND_c_482_p \
 N_GND_c_995_p N_GND_c_511_p N_GND_c_519_p N_GND_c_2_p N_GND_c_3_p N_GND_c_4_p \
 N_GND_c_5_p N_GND_c_6_p N_GND_c_7_p N_GND_c_8_p N_GND_c_9_p N_GND_c_10_p \
 N_GND_c_11_p N_GND_c_12_p N_GND_c_13_p N_GND_c_14_p N_GND_c_15_p N_GND_c_16_p \
 N_GND_c_17_p N_GND_c_18_p N_GND_c_19_p N_GND_c_20_p N_GND_c_21_p N_GND_c_22_p \
 N_GND_c_23_p N_GND_M0_noxref_d N_GND_M2_noxref_d N_GND_M5_noxref_d \
 N_GND_M8_noxref_d N_GND_M10_noxref_d N_GND_M12_noxref_d N_GND_M15_noxref_d \
 N_GND_M17_noxref_d N_GND_M20_noxref_d N_GND_M23_noxref_d N_GND_M25_noxref_d \
 N_GND_M27_noxref_d N_GND_M30_noxref_d N_GND_M32_noxref_d N_GND_M35_noxref_d \
 N_GND_M38_noxref_d N_GND_M40_noxref_d N_GND_M42_noxref_d N_GND_M45_noxref_d \
 N_GND_M47_noxref_d N_GND_M49_noxref_d N_GND_M51_noxref_s )  PM_TMRDFFSNQX1\%GND
x_PM_TMRDFFSNQX1\%VDD ( VDD N_VDD_c_1035_p N_VDD_c_1036_p N_VDD_c_1037_p \
 N_VDD_c_1114_p N_VDD_c_1115_p N_VDD_c_1052_p N_VDD_c_1129_p N_VDD_c_1135_p \
 N_VDD_c_1139_p N_VDD_c_1602_p N_VDD_c_1056_p N_VDD_c_1077_p N_VDD_c_1083_p \
 N_VDD_c_1087_p N_VDD_c_1605_p N_VDD_c_1091_p N_VDD_c_1207_p N_VDD_c_1613_p \
 N_VDD_c_1614_p N_VDD_c_1142_p N_VDD_c_1174_p N_VDD_c_1616_p N_VDD_c_1617_p \
 N_VDD_c_1186_p N_VDD_c_1839_p N_VDD_c_1226_p N_VDD_c_1619_p N_VDD_c_1620_p \
 N_VDD_c_1242_p N_VDD_c_1243_p N_VDD_c_1622_p N_VDD_c_1623_p N_VDD_c_1258_p \
 N_VDD_c_1328_p N_VDD_c_1334_p N_VDD_c_1338_p N_VDD_c_1639_p N_VDD_c_1262_p \
 N_VDD_c_1283_p N_VDD_c_1289_p N_VDD_c_1293_p N_VDD_c_1642_p N_VDD_c_1297_p \
 N_VDD_c_1404_p N_VDD_c_1650_p N_VDD_c_1651_p N_VDD_c_1341_p N_VDD_c_1371_p \
 N_VDD_c_1653_p N_VDD_c_1654_p N_VDD_c_1383_p N_VDD_c_1449_p N_VDD_c_1423_p \
 N_VDD_c_1459_p N_VDD_c_1657_p N_VDD_c_1505_p N_VDD_c_1524_p N_VDD_c_1659_p \
 N_VDD_c_1660_p N_VDD_c_1539_p N_VDD_c_1716_p N_VDD_c_1746_p N_VDD_c_1675_p \
 N_VDD_c_1676_p N_VDD_c_1543_p N_VDD_c_1564_p N_VDD_c_1570_p N_VDD_c_1574_p \
 N_VDD_c_1679_p N_VDD_c_1578_p N_VDD_c_1720_p N_VDD_c_1727_p N_VDD_c_1728_p \
 N_VDD_c_1729_p N_VDD_c_1793_p N_VDD_c_1782_p N_VDD_c_1783_p N_VDD_c_1784_p \
 N_VDD_c_1855_p N_VDD_c_1884_p N_VDD_c_1939_p N_VDD_c_1940_p N_VDD_c_1911_p \
 N_VDD_c_1472_p N_VDD_c_1901_p N_VDD_c_1902_p N_VDD_c_1441_p N_VDD_c_2078_p \
 N_VDD_c_2079_p N_VDD_c_1012_n N_VDD_c_1013_n N_VDD_c_1014_n N_VDD_c_1015_n \
 N_VDD_c_1016_n N_VDD_c_1017_n N_VDD_c_1018_n N_VDD_c_1019_n N_VDD_c_1020_n \
 N_VDD_c_1021_n N_VDD_c_1022_n N_VDD_c_1023_n N_VDD_c_1024_n N_VDD_c_1025_n \
 N_VDD_c_1026_n N_VDD_c_1027_n N_VDD_c_1028_n N_VDD_c_1029_n N_VDD_c_1030_n \
 N_VDD_c_1031_n N_VDD_c_1032_n N_VDD_c_1033_n N_VDD_c_1034_n \
 N_VDD_M52_noxref_s N_VDD_M53_noxref_d N_VDD_M55_noxref_d N_VDD_M56_noxref_s \
 N_VDD_M57_noxref_d N_VDD_M59_noxref_d N_VDD_M61_noxref_d N_VDD_M62_noxref_s \
 N_VDD_M63_noxref_d N_VDD_M65_noxref_d N_VDD_M67_noxref_d N_VDD_M68_noxref_s \
 N_VDD_M69_noxref_d N_VDD_M71_noxref_d N_VDD_M72_noxref_s N_VDD_M73_noxref_d \
 N_VDD_M75_noxref_d N_VDD_M76_noxref_s N_VDD_M77_noxref_d N_VDD_M79_noxref_d \
 N_VDD_M81_noxref_d N_VDD_M82_noxref_s N_VDD_M83_noxref_d N_VDD_M85_noxref_d \
 N_VDD_M86_noxref_s N_VDD_M87_noxref_d N_VDD_M89_noxref_d N_VDD_M91_noxref_d \
 N_VDD_M92_noxref_s N_VDD_M93_noxref_d N_VDD_M95_noxref_d N_VDD_M97_noxref_d \
 N_VDD_M98_noxref_s N_VDD_M99_noxref_d N_VDD_M101_noxref_d N_VDD_M102_noxref_s \
 N_VDD_M103_noxref_d N_VDD_M105_noxref_d N_VDD_M106_noxref_s \
 N_VDD_M107_noxref_d N_VDD_M109_noxref_d N_VDD_M111_noxref_d \
 N_VDD_M112_noxref_s N_VDD_M113_noxref_d N_VDD_M115_noxref_d \
 N_VDD_M116_noxref_s N_VDD_M117_noxref_d N_VDD_M119_noxref_d \
 N_VDD_M121_noxref_d N_VDD_M122_noxref_s N_VDD_M123_noxref_d \
 N_VDD_M125_noxref_d N_VDD_M127_noxref_d N_VDD_M128_noxref_s \
 N_VDD_M129_noxref_d N_VDD_M131_noxref_d N_VDD_M132_noxref_s \
 N_VDD_M133_noxref_d N_VDD_M135_noxref_d N_VDD_M136_noxref_s \
 N_VDD_M137_noxref_d N_VDD_M139_noxref_d N_VDD_M141_noxref_d \
 N_VDD_M142_noxref_s N_VDD_M143_noxref_d N_VDD_M145_noxref_d \
 N_VDD_M154_noxref_s N_VDD_M155_noxref_d )  PM_TMRDFFSNQX1\%VDD
x_PM_TMRDFFSNQX1\%noxref_3 ( N_noxref_3_c_2117_n N_noxref_3_c_2121_n \
 N_noxref_3_c_2123_n N_noxref_3_c_2127_n N_noxref_3_c_2157_n \
 N_noxref_3_c_2161_n N_noxref_3_c_2163_n N_noxref_3_c_2129_n \
 N_noxref_3_c_2259_p N_noxref_3_c_2130_n N_noxref_3_c_2132_n \
 N_noxref_3_c_2133_n N_noxref_3_c_2233_p N_noxref_3_M2_noxref_g \
 N_noxref_3_M5_noxref_g N_noxref_3_M56_noxref_g N_noxref_3_M57_noxref_g \
 N_noxref_3_M62_noxref_g N_noxref_3_M63_noxref_g N_noxref_3_c_2134_n \
 N_noxref_3_c_2136_n N_noxref_3_c_2137_n N_noxref_3_c_2138_n \
 N_noxref_3_c_2139_n N_noxref_3_c_2140_n N_noxref_3_c_2141_n \
 N_noxref_3_c_2143_n N_noxref_3_c_2221_p N_noxref_3_c_2182_n \
 N_noxref_3_c_2144_n N_noxref_3_c_2146_n N_noxref_3_c_2147_n \
 N_noxref_3_c_2148_n N_noxref_3_c_2149_n N_noxref_3_c_2150_n \
 N_noxref_3_c_2151_n N_noxref_3_c_2153_n N_noxref_3_c_2200_p \
 N_noxref_3_c_2184_n N_noxref_3_M1_noxref_d N_noxref_3_M52_noxref_d \
 N_noxref_3_M54_noxref_d )  PM_TMRDFFSNQX1\%noxref_3
x_PM_TMRDFFSNQX1\%noxref_4 ( N_noxref_4_c_2361_n N_noxref_4_c_2362_n \
 N_noxref_4_c_2377_n N_noxref_4_c_2381_n N_noxref_4_c_2383_n \
 N_noxref_4_c_2387_n N_noxref_4_c_2363_n N_noxref_4_c_2495_p \
 N_noxref_4_c_2364_n N_noxref_4_c_2365_n N_noxref_4_c_2505_p \
 N_noxref_4_c_2431_p N_noxref_4_M8_noxref_g N_noxref_4_M68_noxref_g \
 N_noxref_4_M69_noxref_g N_noxref_4_c_2366_n N_noxref_4_c_2368_n \
 N_noxref_4_c_2369_n N_noxref_4_c_2370_n N_noxref_4_c_2371_n \
 N_noxref_4_c_2372_n N_noxref_4_c_2373_n N_noxref_4_c_2375_n \
 N_noxref_4_c_2399_n N_noxref_4_M7_noxref_d N_noxref_4_M62_noxref_d \
 N_noxref_4_M64_noxref_d N_noxref_4_M66_noxref_d )  PM_TMRDFFSNQX1\%noxref_4
x_PM_TMRDFFSNQX1\%noxref_5 ( N_noxref_5_c_2540_n N_noxref_5_c_2547_n \
 N_noxref_5_c_2548_n N_noxref_5_c_2551_n N_noxref_5_c_2608_n \
 N_noxref_5_c_2525_n N_noxref_5_c_2554_n N_noxref_5_c_2558_n \
 N_noxref_5_c_2560_n N_noxref_5_c_2564_n N_noxref_5_c_2527_n \
 N_noxref_5_c_2617_n N_noxref_5_c_2666_p N_noxref_5_c_2528_n \
 N_noxref_5_c_2728_p N_noxref_5_c_2667_p N_noxref_5_c_2571_n \
 N_noxref_5_c_2618_n N_noxref_5_M1_noxref_g N_noxref_5_M10_noxref_g \
 N_noxref_5_M54_noxref_g N_noxref_5_M55_noxref_g N_noxref_5_M72_noxref_g \
 N_noxref_5_M73_noxref_g N_noxref_5_c_2624_n N_noxref_5_c_2625_n \
 N_noxref_5_c_2626_n N_noxref_5_c_2627_n N_noxref_5_c_2629_n \
 N_noxref_5_c_2630_n N_noxref_5_c_2632_n N_noxref_5_c_2633_n \
 N_noxref_5_c_2529_n N_noxref_5_c_2531_n N_noxref_5_c_2532_n \
 N_noxref_5_c_2533_n N_noxref_5_c_2534_n N_noxref_5_c_2535_n \
 N_noxref_5_c_2536_n N_noxref_5_c_2538_n N_noxref_5_c_2635_n \
 N_noxref_5_c_2636_n N_noxref_5_c_2638_n N_noxref_5_c_2581_n \
 N_noxref_5_M4_noxref_d N_noxref_5_M56_noxref_d N_noxref_5_M58_noxref_d \
 N_noxref_5_M60_noxref_d )  PM_TMRDFFSNQX1\%noxref_5
x_PM_TMRDFFSNQX1\%noxref_6 ( N_noxref_6_c_2819_n N_noxref_6_c_2820_n \
 N_noxref_6_c_2821_n N_noxref_6_c_2825_n N_noxref_6_c_2827_n \
 N_noxref_6_c_2803_n N_noxref_6_c_2874_p N_noxref_6_c_2804_n \
 N_noxref_6_c_2805_n N_noxref_6_c_2924_p N_noxref_6_M12_noxref_g \
 N_noxref_6_M76_noxref_g N_noxref_6_M77_noxref_g N_noxref_6_c_2806_n \
 N_noxref_6_c_2808_n N_noxref_6_c_2809_n N_noxref_6_c_2810_n \
 N_noxref_6_c_2811_n N_noxref_6_c_2812_n N_noxref_6_c_2813_n \
 N_noxref_6_c_2815_n N_noxref_6_c_2884_p N_noxref_6_c_2839_n \
 N_noxref_6_M11_noxref_d N_noxref_6_M72_noxref_d N_noxref_6_M74_noxref_d )  \
 PM_TMRDFFSNQX1\%noxref_6
x_PM_TMRDFFSNQX1\%noxref_7 ( N_noxref_7_c_3001_n N_noxref_7_c_3003_n \
 N_noxref_7_c_3009_n N_noxref_7_c_3013_n N_noxref_7_c_3053_n \
 N_noxref_7_c_3055_n N_noxref_7_c_2955_n N_noxref_7_c_2956_n \
 N_noxref_7_c_2965_n N_noxref_7_c_2969_n N_noxref_7_c_2971_n \
 N_noxref_7_c_2957_n N_noxref_7_c_3170_p N_noxref_7_c_2958_n \
 N_noxref_7_c_2959_n N_noxref_7_c_3150_p N_noxref_7_M4_noxref_g \
 N_noxref_7_M7_noxref_g N_noxref_7_M14_noxref_g N_noxref_7_M60_noxref_g \
 N_noxref_7_M61_noxref_g N_noxref_7_M66_noxref_g N_noxref_7_M67_noxref_g \
 N_noxref_7_M80_noxref_g N_noxref_7_M81_noxref_g N_noxref_7_c_3070_n \
 N_noxref_7_c_3071_n N_noxref_7_c_3072_n N_noxref_7_c_3073_n \
 N_noxref_7_c_3074_n N_noxref_7_c_3076_n N_noxref_7_c_3077_n \
 N_noxref_7_c_3028_n N_noxref_7_c_3029_n N_noxref_7_c_3030_n \
 N_noxref_7_c_3031_n N_noxref_7_c_3032_n N_noxref_7_c_3034_n \
 N_noxref_7_c_3035_n N_noxref_7_c_3204_p N_noxref_7_c_3205_p \
 N_noxref_7_c_3206_p N_noxref_7_c_3236_p N_noxref_7_c_3178_p \
 N_noxref_7_c_3238_p N_noxref_7_c_3225_p N_noxref_7_c_3008_n \
 N_noxref_7_c_3080_n N_noxref_7_c_3082_n N_noxref_7_c_3037_n \
 N_noxref_7_c_3038_n N_noxref_7_c_3040_n N_noxref_7_c_3179_p \
 N_noxref_7_c_3209_p N_noxref_7_c_3118_p N_noxref_7_M9_noxref_d \
 N_noxref_7_M68_noxref_d N_noxref_7_M70_noxref_d )  PM_TMRDFFSNQX1\%noxref_7
x_PM_TMRDFFSNQX1\%noxref_8 ( N_noxref_8_c_3277_n N_noxref_8_c_3278_n \
 N_noxref_8_c_3279_n N_noxref_8_c_3280_n N_noxref_8_c_3309_n \
 N_noxref_8_c_3313_n N_noxref_8_c_3315_n N_noxref_8_c_3281_n \
 N_noxref_8_c_3444_p N_noxref_8_c_3282_n N_noxref_8_c_3284_n \
 N_noxref_8_c_3285_n N_noxref_8_c_3378_p N_noxref_8_M17_noxref_g \
 N_noxref_8_M20_noxref_g N_noxref_8_M86_noxref_g N_noxref_8_M87_noxref_g \
 N_noxref_8_M92_noxref_g N_noxref_8_M93_noxref_g N_noxref_8_c_3286_n \
 N_noxref_8_c_3288_n N_noxref_8_c_3289_n N_noxref_8_c_3290_n \
 N_noxref_8_c_3291_n N_noxref_8_c_3292_n N_noxref_8_c_3293_n \
 N_noxref_8_c_3295_n N_noxref_8_c_3367_p N_noxref_8_c_3334_n \
 N_noxref_8_c_3296_n N_noxref_8_c_3298_n N_noxref_8_c_3299_n \
 N_noxref_8_c_3300_n N_noxref_8_c_3301_n N_noxref_8_c_3302_n \
 N_noxref_8_c_3303_n N_noxref_8_c_3305_n N_noxref_8_c_3352_p \
 N_noxref_8_c_3336_n N_noxref_8_M16_noxref_d N_noxref_8_M82_noxref_d \
 N_noxref_8_M84_noxref_d )  PM_TMRDFFSNQX1\%noxref_8
x_PM_TMRDFFSNQX1\%noxref_9 ( N_noxref_9_c_3509_n N_noxref_9_c_3510_n \
 N_noxref_9_c_3525_n N_noxref_9_c_3529_n N_noxref_9_c_3531_n \
 N_noxref_9_c_3535_n N_noxref_9_c_3511_n N_noxref_9_c_3641_p \
 N_noxref_9_c_3512_n N_noxref_9_c_3513_n N_noxref_9_c_3651_p \
 N_noxref_9_c_3577_p N_noxref_9_M23_noxref_g N_noxref_9_M98_noxref_g \
 N_noxref_9_M99_noxref_g N_noxref_9_c_3514_n N_noxref_9_c_3516_n \
 N_noxref_9_c_3517_n N_noxref_9_c_3518_n N_noxref_9_c_3519_n \
 N_noxref_9_c_3520_n N_noxref_9_c_3521_n N_noxref_9_c_3523_n \
 N_noxref_9_c_3547_n N_noxref_9_M22_noxref_d N_noxref_9_M92_noxref_d \
 N_noxref_9_M94_noxref_d N_noxref_9_M96_noxref_d )  PM_TMRDFFSNQX1\%noxref_9
x_PM_TMRDFFSNQX1\%noxref_10 ( N_noxref_10_c_3690_n N_noxref_10_c_3742_n \
 N_noxref_10_c_3691_n N_noxref_10_c_3694_n N_noxref_10_c_3745_n \
 N_noxref_10_c_3675_n N_noxref_10_c_3697_n N_noxref_10_c_3701_n \
 N_noxref_10_c_3703_n N_noxref_10_c_3707_n N_noxref_10_c_3677_n \
 N_noxref_10_c_3912_p N_noxref_10_c_3801_p N_noxref_10_c_3678_n \
 N_noxref_10_c_3891_p N_noxref_10_c_3802_p N_noxref_10_c_3714_n \
 N_noxref_10_c_3754_n N_noxref_10_M16_noxref_g N_noxref_10_M25_noxref_g \
 N_noxref_10_M84_noxref_g N_noxref_10_M85_noxref_g N_noxref_10_M102_noxref_g \
 N_noxref_10_M103_noxref_g N_noxref_10_c_3760_n N_noxref_10_c_3761_n \
 N_noxref_10_c_3762_n N_noxref_10_c_3763_n N_noxref_10_c_3765_n \
 N_noxref_10_c_3766_n N_noxref_10_c_3768_n N_noxref_10_c_3769_n \
 N_noxref_10_c_3679_n N_noxref_10_c_3681_n N_noxref_10_c_3682_n \
 N_noxref_10_c_3683_n N_noxref_10_c_3684_n N_noxref_10_c_3685_n \
 N_noxref_10_c_3686_n N_noxref_10_c_3688_n N_noxref_10_c_3771_n \
 N_noxref_10_c_3772_n N_noxref_10_c_3774_n N_noxref_10_c_3724_n \
 N_noxref_10_M19_noxref_d N_noxref_10_M86_noxref_d N_noxref_10_M88_noxref_d \
 N_noxref_10_M90_noxref_d )  PM_TMRDFFSNQX1\%noxref_10
x_PM_TMRDFFSNQX1\%noxref_11 ( N_noxref_11_c_3956_n N_noxref_11_c_3957_n \
 N_noxref_11_c_3975_n N_noxref_11_c_3979_n N_noxref_11_c_3981_n \
 N_noxref_11_c_3958_n N_noxref_11_c_4061_p N_noxref_11_c_3959_n \
 N_noxref_11_c_3961_n N_noxref_11_c_4037_p N_noxref_11_M27_noxref_g \
 N_noxref_11_M106_noxref_g N_noxref_11_M107_noxref_g N_noxref_11_c_3962_n \
 N_noxref_11_c_3964_n N_noxref_11_c_3965_n N_noxref_11_c_3966_n \
 N_noxref_11_c_3967_n N_noxref_11_c_3968_n N_noxref_11_c_3969_n \
 N_noxref_11_c_3971_n N_noxref_11_c_4028_p N_noxref_11_c_3993_n \
 N_noxref_11_M26_noxref_d N_noxref_11_M102_noxref_d N_noxref_11_M104_noxref_d ) \
 PM_TMRDFFSNQX1\%noxref_11
x_PM_TMRDFFSNQX1\%noxref_12 ( N_noxref_12_c_4157_n N_noxref_12_c_4200_n \
 N_noxref_12_c_4162_n N_noxref_12_c_4164_n N_noxref_12_c_4204_n \
 N_noxref_12_c_4206_n N_noxref_12_c_4111_n N_noxref_12_c_4112_n \
 N_noxref_12_c_4121_n N_noxref_12_c_4125_n N_noxref_12_c_4127_n \
 N_noxref_12_c_4113_n N_noxref_12_c_4345_p N_noxref_12_c_4114_n \
 N_noxref_12_c_4115_n N_noxref_12_c_4327_p N_noxref_12_M19_noxref_g \
 N_noxref_12_M22_noxref_g N_noxref_12_M29_noxref_g N_noxref_12_M90_noxref_g \
 N_noxref_12_M91_noxref_g N_noxref_12_M96_noxref_g N_noxref_12_M97_noxref_g \
 N_noxref_12_M110_noxref_g N_noxref_12_M111_noxref_g N_noxref_12_c_4221_n \
 N_noxref_12_c_4222_n N_noxref_12_c_4223_n N_noxref_12_c_4224_n \
 N_noxref_12_c_4225_n N_noxref_12_c_4227_n N_noxref_12_c_4228_n \
 N_noxref_12_c_4179_n N_noxref_12_c_4180_n N_noxref_12_c_4181_n \
 N_noxref_12_c_4182_n N_noxref_12_c_4183_n N_noxref_12_c_4185_n \
 N_noxref_12_c_4186_n N_noxref_12_c_4258_p N_noxref_12_c_4259_p \
 N_noxref_12_c_4260_p N_noxref_12_c_4261_p N_noxref_12_c_4249_p \
 N_noxref_12_c_4263_p N_noxref_12_c_4250_p N_noxref_12_c_4230_n \
 N_noxref_12_c_4231_n N_noxref_12_c_4233_n N_noxref_12_c_4188_n \
 N_noxref_12_c_4189_n N_noxref_12_c_4191_n N_noxref_12_c_4253_p \
 N_noxref_12_c_4254_p N_noxref_12_c_4248_p N_noxref_12_M24_noxref_d \
 N_noxref_12_M98_noxref_d N_noxref_12_M100_noxref_d )  PM_TMRDFFSNQX1\%noxref_12
x_PM_TMRDFFSNQX1\%noxref_13 ( N_noxref_13_c_4455_n N_noxref_13_c_4513_n \
 N_noxref_13_c_4433_n N_noxref_13_c_4434_n N_noxref_13_c_4602_p \
 N_noxref_13_c_4435_n N_noxref_13_c_4603_p N_noxref_13_c_4444_n \
 N_noxref_13_c_4461_n N_noxref_13_c_4515_n N_noxref_13_c_4445_n \
 N_noxref_13_c_4464_n N_noxref_13_c_4468_n N_noxref_13_c_4470_n \
 N_noxref_13_c_4474_n N_noxref_13_c_4447_n N_noxref_13_c_4658_p \
 N_noxref_13_c_4448_n N_noxref_13_c_4479_n N_noxref_13_c_4449_n \
 N_noxref_13_c_4451_n N_noxref_13_c_4671_p N_noxref_13_c_4587_n \
 N_noxref_13_c_4772_p N_noxref_13_M26_noxref_g N_noxref_13_M46_noxref_g \
 N_noxref_13_M50_noxref_g N_noxref_13_M104_noxref_g N_noxref_13_M105_noxref_g \
 N_noxref_13_M144_noxref_g N_noxref_13_M145_noxref_g N_noxref_13_M152_noxref_g \
 N_noxref_13_M153_noxref_g N_noxref_13_c_4523_n N_noxref_13_c_4526_n \
 N_noxref_13_c_4528_n N_noxref_13_c_4557_n N_noxref_13_c_4559_n \
 N_noxref_13_c_4560_n N_noxref_13_c_4531_n N_noxref_13_c_4532_n \
 N_noxref_13_c_4725_p N_noxref_13_c_4727_p N_noxref_13_c_4728_p \
 N_noxref_13_c_4496_n N_noxref_13_c_4803_p N_noxref_13_c_4804_p \
 N_noxref_13_c_4735_p N_noxref_13_c_4738_p N_noxref_13_c_4768_p \
 N_noxref_13_c_4779_p N_noxref_13_c_4770_p N_noxref_13_c_4830_p \
 N_noxref_13_c_4811_p N_noxref_13_c_4781_p N_noxref_13_c_4778_p \
 N_noxref_13_c_4782_p N_noxref_13_c_4533_n N_noxref_13_c_4566_n \
 N_noxref_13_c_4535_n N_noxref_13_c_4453_n N_noxref_13_c_4888_p \
 N_noxref_13_c_4497_n N_noxref_13_c_4756_p N_noxref_13_c_4826_p \
 N_noxref_13_c_4762_p N_noxref_13_M29_noxref_d N_noxref_13_M106_noxref_d \
 N_noxref_13_M108_noxref_d N_noxref_13_M110_noxref_d )  \
 PM_TMRDFFSNQX1\%noxref_13
x_PM_TMRDFFSNQX1\%D ( N_D_c_4900_n N_D_c_4908_n N_D_c_4909_n N_D_c_5060_n D D \
 D D D D D D D D D D D N_D_c_4915_n N_D_c_4916_n N_D_c_4917_n N_D_M0_noxref_g \
 N_D_M15_noxref_g N_D_M30_noxref_g N_D_M52_noxref_g N_D_M53_noxref_g \
 N_D_M82_noxref_g N_D_M83_noxref_g N_D_M112_noxref_g N_D_M113_noxref_g \
 N_D_c_4918_n N_D_c_4920_n N_D_c_4921_n N_D_c_4922_n N_D_c_4923_n N_D_c_4924_n \
 N_D_c_4925_n N_D_c_4927_n N_D_c_4928_n N_D_c_4930_n N_D_c_4931_n N_D_c_4932_n \
 N_D_c_4933_n N_D_c_4934_n N_D_c_4935_n N_D_c_4937_n N_D_c_4938_n N_D_c_4940_n \
 N_D_c_4941_n N_D_c_4942_n N_D_c_4943_n N_D_c_4944_n N_D_c_4945_n N_D_c_4947_n \
 N_D_c_4971_n N_D_c_4972_n N_D_c_4973_n )  PM_TMRDFFSNQX1\%D
x_PM_TMRDFFSNQX1\%noxref_15 ( N_noxref_15_c_5221_n N_noxref_15_c_5222_n \
 N_noxref_15_c_5223_n N_noxref_15_c_5224_n N_noxref_15_c_5253_n \
 N_noxref_15_c_5257_n N_noxref_15_c_5259_n N_noxref_15_c_5225_n \
 N_noxref_15_c_5389_p N_noxref_15_c_5226_n N_noxref_15_c_5228_n \
 N_noxref_15_c_5229_n N_noxref_15_c_5372_p N_noxref_15_M32_noxref_g \
 N_noxref_15_M35_noxref_g N_noxref_15_M116_noxref_g N_noxref_15_M117_noxref_g \
 N_noxref_15_M122_noxref_g N_noxref_15_M123_noxref_g N_noxref_15_c_5230_n \
 N_noxref_15_c_5232_n N_noxref_15_c_5233_n N_noxref_15_c_5234_n \
 N_noxref_15_c_5235_n N_noxref_15_c_5236_n N_noxref_15_c_5237_n \
 N_noxref_15_c_5239_n N_noxref_15_c_5330_p N_noxref_15_c_5278_n \
 N_noxref_15_c_5240_n N_noxref_15_c_5242_n N_noxref_15_c_5243_n \
 N_noxref_15_c_5244_n N_noxref_15_c_5245_n N_noxref_15_c_5246_n \
 N_noxref_15_c_5247_n N_noxref_15_c_5249_n N_noxref_15_c_5315_p \
 N_noxref_15_c_5280_n N_noxref_15_M31_noxref_d N_noxref_15_M112_noxref_d \
 N_noxref_15_M114_noxref_d )  PM_TMRDFFSNQX1\%noxref_15
x_PM_TMRDFFSNQX1\%noxref_16 ( N_noxref_16_c_5458_n N_noxref_16_c_5459_n \
 N_noxref_16_c_5474_n N_noxref_16_c_5478_n N_noxref_16_c_5480_n \
 N_noxref_16_c_5484_n N_noxref_16_c_5460_n N_noxref_16_c_5555_p \
 N_noxref_16_c_5461_n N_noxref_16_c_5462_n N_noxref_16_c_5565_p \
 N_noxref_16_c_5573_p N_noxref_16_M38_noxref_g N_noxref_16_M128_noxref_g \
 N_noxref_16_M129_noxref_g N_noxref_16_c_5463_n N_noxref_16_c_5465_n \
 N_noxref_16_c_5466_n N_noxref_16_c_5467_n N_noxref_16_c_5468_n \
 N_noxref_16_c_5469_n N_noxref_16_c_5470_n N_noxref_16_c_5472_n \
 N_noxref_16_c_5496_n N_noxref_16_M37_noxref_d N_noxref_16_M122_noxref_d \
 N_noxref_16_M124_noxref_d N_noxref_16_M126_noxref_d )  \
 PM_TMRDFFSNQX1\%noxref_16
x_PM_TMRDFFSNQX1\%CLK ( N_CLK_c_5631_n N_CLK_c_5642_n N_CLK_c_5643_n \
 N_CLK_c_5667_n N_CLK_c_5668_n N_CLK_c_5679_n N_CLK_c_5680_n N_CLK_c_5704_n \
 N_CLK_c_5705_n N_CLK_c_5716_n CLK CLK CLK CLK CLK CLK CLK CLK CLK CLK CLK CLK \
 CLK CLK CLK N_CLK_c_5622_n N_CLK_c_5791_n N_CLK_c_5623_n N_CLK_c_5625_n \
 N_CLK_c_5947_n N_CLK_c_5626_n N_CLK_c_5628_n N_CLK_c_6133_n N_CLK_c_5629_n \
 N_CLK_M3_noxref_g N_CLK_M9_noxref_g N_CLK_M18_noxref_g N_CLK_M24_noxref_g \
 N_CLK_M33_noxref_g N_CLK_M39_noxref_g N_CLK_M58_noxref_g N_CLK_M59_noxref_g \
 N_CLK_M70_noxref_g N_CLK_M71_noxref_g N_CLK_M88_noxref_g N_CLK_M89_noxref_g \
 N_CLK_M100_noxref_g N_CLK_M101_noxref_g N_CLK_M118_noxref_g \
 N_CLK_M119_noxref_g N_CLK_M130_noxref_g N_CLK_M131_noxref_g N_CLK_c_5769_n \
 N_CLK_c_5772_n N_CLK_c_6298_p N_CLK_c_6305_p N_CLK_c_5774_n N_CLK_c_5775_n \
 N_CLK_c_5776_n N_CLK_c_5777_n N_CLK_c_5837_n N_CLK_c_5800_n N_CLK_c_5803_n \
 N_CLK_c_5805_n N_CLK_c_5893_n N_CLK_c_5895_n N_CLK_c_5896_n N_CLK_c_5808_n \
 N_CLK_c_5809_n N_CLK_c_5926_n N_CLK_c_5929_n N_CLK_c_6327_p N_CLK_c_6334_p \
 N_CLK_c_5931_n N_CLK_c_5932_n N_CLK_c_5933_n N_CLK_c_5934_n N_CLK_c_6000_n \
 N_CLK_c_5956_n N_CLK_c_5959_n N_CLK_c_5961_n N_CLK_c_6054_n N_CLK_c_6056_n \
 N_CLK_c_6057_n N_CLK_c_5964_n N_CLK_c_5965_n N_CLK_c_6114_n N_CLK_c_6117_n \
 N_CLK_c_6356_p N_CLK_c_6363_p N_CLK_c_6119_n N_CLK_c_6120_n N_CLK_c_6121_n \
 N_CLK_c_6122_n N_CLK_c_6179_p N_CLK_c_6142_n N_CLK_c_6145_n N_CLK_c_6147_n \
 N_CLK_c_6163_p N_CLK_c_6261_p N_CLK_c_6197_p N_CLK_c_6150_n N_CLK_c_6151_n \
 N_CLK_c_5780_n N_CLK_c_5810_n N_CLK_c_5904_n N_CLK_c_5812_n N_CLK_c_5936_n \
 N_CLK_c_5966_n N_CLK_c_6065_n N_CLK_c_5968_n N_CLK_c_6124_n N_CLK_c_6152_n \
 N_CLK_c_6241_p N_CLK_c_6154_n )  PM_TMRDFFSNQX1\%CLK
x_PM_TMRDFFSNQX1\%noxref_18 ( N_noxref_18_c_6392_n N_noxref_18_c_6449_n \
 N_noxref_18_c_6393_n N_noxref_18_c_6402_n N_noxref_18_c_6458_n \
 N_noxref_18_c_6377_n N_noxref_18_c_6405_n N_noxref_18_c_6409_n \
 N_noxref_18_c_6411_n N_noxref_18_c_6415_n N_noxref_18_c_6379_n \
 N_noxref_18_c_6558_p N_noxref_18_c_6539_n N_noxref_18_c_6380_n \
 N_noxref_18_c_6542_n N_noxref_18_c_6583_p N_noxref_18_c_6422_n \
 N_noxref_18_c_6456_n N_noxref_18_M31_noxref_g N_noxref_18_M40_noxref_g \
 N_noxref_18_M114_noxref_g N_noxref_18_M115_noxref_g N_noxref_18_M132_noxref_g \
 N_noxref_18_M133_noxref_g N_noxref_18_c_6466_n N_noxref_18_c_6469_n \
 N_noxref_18_c_6471_n N_noxref_18_c_6503_n N_noxref_18_c_6505_n \
 N_noxref_18_c_6506_n N_noxref_18_c_6474_n N_noxref_18_c_6475_n \
 N_noxref_18_c_6381_n N_noxref_18_c_6383_n N_noxref_18_c_6384_n \
 N_noxref_18_c_6385_n N_noxref_18_c_6386_n N_noxref_18_c_6387_n \
 N_noxref_18_c_6388_n N_noxref_18_c_6390_n N_noxref_18_c_6476_n \
 N_noxref_18_c_6512_n N_noxref_18_c_6478_n N_noxref_18_c_6432_n \
 N_noxref_18_M34_noxref_d N_noxref_18_M116_noxref_d N_noxref_18_M118_noxref_d \
 N_noxref_18_M120_noxref_d )  PM_TMRDFFSNQX1\%noxref_18
x_PM_TMRDFFSNQX1\%noxref_19 ( N_noxref_19_c_6684_n N_noxref_19_c_6690_n \
 N_noxref_19_c_6694_n N_noxref_19_c_6698_n N_noxref_19_c_6700_n \
 N_noxref_19_c_6668_n N_noxref_19_c_6735_p N_noxref_19_c_6669_n \
 N_noxref_19_c_6670_n N_noxref_19_c_6799_p N_noxref_19_M42_noxref_g \
 N_noxref_19_M136_noxref_g N_noxref_19_M137_noxref_g N_noxref_19_c_6671_n \
 N_noxref_19_c_6673_n N_noxref_19_c_6674_n N_noxref_19_c_6675_n \
 N_noxref_19_c_6676_n N_noxref_19_c_6677_n N_noxref_19_c_6678_n \
 N_noxref_19_c_6680_n N_noxref_19_c_6743_p N_noxref_19_c_6713_n \
 N_noxref_19_M41_noxref_d N_noxref_19_M132_noxref_d N_noxref_19_M134_noxref_d ) \
 PM_TMRDFFSNQX1\%noxref_19
x_PM_TMRDFFSNQX1\%SN ( N_SN_c_6833_n N_SN_c_6843_n N_SN_c_6844_n N_SN_c_6854_n \
 N_SN_c_6855_n N_SN_c_6865_n N_SN_c_6866_n N_SN_c_6876_n N_SN_c_6877_n \
 N_SN_c_6887_n SN SN SN SN SN SN SN SN SN SN N_SN_c_6888_n N_SN_c_6889_n \
 N_SN_c_6890_n N_SN_c_6891_n N_SN_c_6892_n N_SN_c_6893_n N_SN_M6_noxref_g \
 N_SN_M13_noxref_g N_SN_M21_noxref_g N_SN_M28_noxref_g N_SN_M36_noxref_g \
 N_SN_M43_noxref_g N_SN_M64_noxref_g N_SN_M65_noxref_g N_SN_M78_noxref_g \
 N_SN_M79_noxref_g N_SN_M94_noxref_g N_SN_M95_noxref_g N_SN_M108_noxref_g \
 N_SN_M109_noxref_g N_SN_M124_noxref_g N_SN_M125_noxref_g N_SN_M138_noxref_g \
 N_SN_M139_noxref_g N_SN_c_6940_n N_SN_c_6943_n N_SN_c_7436_p N_SN_c_7444_p \
 N_SN_c_6945_n N_SN_c_6946_n N_SN_c_6947_n N_SN_c_6948_n N_SN_c_6965_n \
 N_SN_c_6986_n N_SN_c_6989_n N_SN_c_7476_p N_SN_c_7484_p N_SN_c_6991_n \
 N_SN_c_6992_n N_SN_c_6993_n N_SN_c_6994_n N_SN_c_7045_n N_SN_c_7070_n \
 N_SN_c_7073_n N_SN_c_7518_p N_SN_c_7526_p N_SN_c_7075_n N_SN_c_7076_n \
 N_SN_c_7077_n N_SN_c_7078_n N_SN_c_7095_n N_SN_c_7123_n N_SN_c_7126_n \
 N_SN_c_7558_p N_SN_c_7566_p N_SN_c_7128_n N_SN_c_7129_n N_SN_c_7130_n \
 N_SN_c_7131_n N_SN_c_7179_n N_SN_c_7244_n N_SN_c_7247_n N_SN_c_7600_p \
 N_SN_c_7608_p N_SN_c_7249_n N_SN_c_7250_n N_SN_c_7251_n N_SN_c_7252_n \
 N_SN_c_7269_n N_SN_c_7321_n N_SN_c_7324_n N_SN_c_7636_p N_SN_c_7643_p \
 N_SN_c_7326_n N_SN_c_7327_n N_SN_c_7328_n N_SN_c_7204_n N_SN_c_7378_p \
 N_SN_c_6950_n N_SN_c_6996_n N_SN_c_7080_n N_SN_c_7133_n N_SN_c_7254_n \
 N_SN_c_7331_n )  PM_TMRDFFSNQX1\%SN
x_PM_TMRDFFSNQX1\%noxref_21 ( N_noxref_21_c_7696_n N_noxref_21_c_7697_n \
 N_noxref_21_c_7698_n N_noxref_21_c_7699_n N_noxref_21_c_7656_n \
 N_noxref_21_c_7701_n N_noxref_21_c_7648_n N_noxref_21_c_7649_n \
 N_noxref_21_c_7660_n N_noxref_21_c_7664_n N_noxref_21_c_7666_n \
 N_noxref_21_c_7650_n N_noxref_21_c_7858_n N_noxref_21_c_7651_n \
 N_noxref_21_c_7652_n N_noxref_21_c_7774_n N_noxref_21_M34_noxref_g \
 N_noxref_21_M37_noxref_g N_noxref_21_M44_noxref_g N_noxref_21_M120_noxref_g \
 N_noxref_21_M121_noxref_g N_noxref_21_M126_noxref_g N_noxref_21_M127_noxref_g \
 N_noxref_21_M140_noxref_g N_noxref_21_M141_noxref_g N_noxref_21_c_7778_n \
 N_noxref_21_c_7779_n N_noxref_21_c_7780_n N_noxref_21_c_7830_n \
 N_noxref_21_c_7831_n N_noxref_21_c_7833_n N_noxref_21_c_7834_n \
 N_noxref_21_c_7729_n N_noxref_21_c_7730_n N_noxref_21_c_7731_n \
 N_noxref_21_c_7732_n N_noxref_21_c_7733_n N_noxref_21_c_7735_n \
 N_noxref_21_c_7736_n N_noxref_21_c_7875_n N_noxref_21_c_7876_n \
 N_noxref_21_c_7877_n N_noxref_21_c_7918_p N_noxref_21_c_7905_p \
 N_noxref_21_c_7920_p N_noxref_21_c_7906_p N_noxref_21_c_7781_n \
 N_noxref_21_c_7783_n N_noxref_21_c_7784_n N_noxref_21_c_7738_n \
 N_noxref_21_c_7739_n N_noxref_21_c_7741_n N_noxref_21_c_7706_n \
 N_noxref_21_c_7890_n N_noxref_21_c_7891_n N_noxref_21_M39_noxref_d \
 N_noxref_21_M128_noxref_d N_noxref_21_M130_noxref_d )  \
 PM_TMRDFFSNQX1\%noxref_21
x_PM_TMRDFFSNQX1\%noxref_22 ( N_noxref_22_c_7969_n N_noxref_22_c_7975_n \
 N_noxref_22_c_7980_n N_noxref_22_c_7984_n N_noxref_22_c_7986_n \
 N_noxref_22_c_7989_n N_noxref_22_c_8022_p N_noxref_22_c_7991_n \
 N_noxref_22_c_8034_p N_noxref_22_M142_noxref_d N_noxref_22_M144_noxref_d \
 N_noxref_22_M146_noxref_s N_noxref_22_M147_noxref_d N_noxref_22_M149_noxref_d \
 )  PM_TMRDFFSNQX1\%noxref_22
x_PM_TMRDFFSNQX1\%noxref_23 ( N_noxref_23_c_8089_n N_noxref_23_c_8092_n \
 N_noxref_23_c_8093_n N_noxref_23_c_8097_n N_noxref_23_c_8100_n \
 N_noxref_23_c_8105_n N_noxref_23_c_8213_n N_noxref_23_c_8060_n \
 N_noxref_23_c_8111_n N_noxref_23_c_8115_n N_noxref_23_c_8117_n \
 N_noxref_23_c_8121_n N_noxref_23_c_8062_n N_noxref_23_c_8177_n \
 N_noxref_23_c_8126_n N_noxref_23_c_8063_n N_noxref_23_c_8066_n \
 N_noxref_23_c_8288_n N_noxref_23_c_8312_n N_noxref_23_M41_noxref_g \
 N_noxref_23_M45_noxref_g N_noxref_23_M47_noxref_g N_noxref_23_M134_noxref_g \
 N_noxref_23_M135_noxref_g N_noxref_23_M142_noxref_g N_noxref_23_M143_noxref_g \
 N_noxref_23_M146_noxref_g N_noxref_23_M147_noxref_g N_noxref_23_c_8221_n \
 N_noxref_23_c_8224_n N_noxref_23_c_8226_n N_noxref_23_c_8263_n \
 N_noxref_23_c_8266_n N_noxref_23_c_8267_n N_noxref_23_c_8229_n \
 N_noxref_23_c_8230_n N_noxref_23_c_8068_n N_noxref_23_c_8070_n \
 N_noxref_23_c_8071_n N_noxref_23_c_8072_n N_noxref_23_c_8073_n \
 N_noxref_23_c_8074_n N_noxref_23_c_8197_n N_noxref_23_c_8146_n \
 N_noxref_23_c_8075_n N_noxref_23_c_8077_n N_noxref_23_c_8078_n \
 N_noxref_23_c_8080_n N_noxref_23_c_8363_p N_noxref_23_c_8081_n \
 N_noxref_23_c_8082_n N_noxref_23_c_8083_n N_noxref_23_c_8084_n \
 N_noxref_23_c_8086_n N_noxref_23_c_8231_n N_noxref_23_c_8273_n \
 N_noxref_23_c_8233_n N_noxref_23_c_8087_n N_noxref_23_c_8148_n \
 N_noxref_23_M44_noxref_d N_noxref_23_M136_noxref_d N_noxref_23_M138_noxref_d \
 N_noxref_23_M140_noxref_d )  PM_TMRDFFSNQX1\%noxref_23
x_PM_TMRDFFSNQX1\%noxref_24 ( N_noxref_24_c_8520_n N_noxref_24_c_8497_n \
 N_noxref_24_c_8424_n N_noxref_24_c_8558_n N_noxref_24_c_8426_n \
 N_noxref_24_c_8427_n N_noxref_24_c_8498_n N_noxref_24_c_8428_n \
 N_noxref_24_c_8451_n N_noxref_24_c_8455_n N_noxref_24_c_8457_n \
 N_noxref_24_c_8461_n N_noxref_24_c_8430_n N_noxref_24_c_8735_n \
 N_noxref_24_c_8465_n N_noxref_24_c_8431_n N_noxref_24_c_8433_n \
 N_noxref_24_c_8738_n N_noxref_24_c_8571_n N_noxref_24_M11_noxref_g \
 N_noxref_24_M48_noxref_g N_noxref_24_M49_noxref_g N_noxref_24_M74_noxref_g \
 N_noxref_24_M75_noxref_g N_noxref_24_M148_noxref_g N_noxref_24_M149_noxref_g \
 N_noxref_24_M150_noxref_g N_noxref_24_M151_noxref_g N_noxref_24_c_8506_n \
 N_noxref_24_c_8509_n N_noxref_24_c_8511_n N_noxref_24_c_8541_n \
 N_noxref_24_c_8543_n N_noxref_24_c_8544_n N_noxref_24_c_8514_n \
 N_noxref_24_c_8515_n N_noxref_24_c_8778_n N_noxref_24_c_8781_n \
 N_noxref_24_c_8805_p N_noxref_24_c_8640_n N_noxref_24_c_8833_p \
 N_noxref_24_c_8834_p N_noxref_24_c_8480_n N_noxref_24_c_8787_n \
 N_noxref_24_c_8788_n N_noxref_24_c_8789_n N_noxref_24_c_8434_n \
 N_noxref_24_c_8435_n N_noxref_24_c_8437_n N_noxref_24_c_8644_n \
 N_noxref_24_c_8438_n N_noxref_24_c_8439_n N_noxref_24_c_8440_n \
 N_noxref_24_c_8646_n N_noxref_24_c_8481_n N_noxref_24_c_8441_n \
 N_noxref_24_c_8443_n N_noxref_24_c_8516_n N_noxref_24_c_8550_n \
 N_noxref_24_c_8518_n N_noxref_24_c_8444_n N_noxref_24_M14_noxref_d \
 N_noxref_24_M76_noxref_d N_noxref_24_M78_noxref_d N_noxref_24_M80_noxref_d )  \
 PM_TMRDFFSNQX1\%noxref_24
x_PM_TMRDFFSNQX1\%noxref_25 ( N_noxref_25_c_8898_n N_noxref_25_c_8902_n \
 N_noxref_25_c_8916_n N_noxref_25_c_8904_n N_noxref_25_c_8905_n \
 N_noxref_25_c_8906_n N_noxref_25_c_8920_n N_noxref_25_c_8908_n \
 N_noxref_25_c_8921_n N_noxref_25_M146_noxref_d N_noxref_25_M148_noxref_d \
 N_noxref_25_M150_noxref_s N_noxref_25_M151_noxref_d N_noxref_25_M153_noxref_d \
 )  PM_TMRDFFSNQX1\%noxref_25
x_PM_TMRDFFSNQX1\%noxref_26 ( N_noxref_26_c_8988_n N_noxref_26_c_8995_n \
 N_noxref_26_c_8996_n N_noxref_26_c_9003_n N_noxref_26_c_9004_n \
 N_noxref_26_c_9007_n N_noxref_26_c_9089_n N_noxref_26_c_9045_n \
 N_noxref_26_c_9046_n N_noxref_26_c_9008_n N_noxref_26_c_9096_n \
 N_noxref_26_c_9010_n N_noxref_26_c_9011_n N_noxref_26_c_9105_n \
 N_noxref_26_M51_noxref_g N_noxref_26_M154_noxref_g N_noxref_26_M155_noxref_g \
 N_noxref_26_c_9016_n N_noxref_26_c_9216_p N_noxref_26_c_9217_p \
 N_noxref_26_c_9018_n N_noxref_26_c_9060_n N_noxref_26_c_9061_n \
 N_noxref_26_c_9019_n N_noxref_26_c_9208_p N_noxref_26_c_9020_n \
 N_noxref_26_c_9022_n N_noxref_26_c_9023_n N_noxref_26_M46_noxref_d \
 N_noxref_26_M48_noxref_d N_noxref_26_M50_noxref_d N_noxref_26_M150_noxref_d \
 N_noxref_26_M152_noxref_d )  PM_TMRDFFSNQX1\%noxref_26
x_PM_TMRDFFSNQX1\%noxref_27 ( N_noxref_27_c_9246_n N_noxref_27_c_9228_n \
 N_noxref_27_c_9232_n N_noxref_27_c_9235_n N_noxref_27_c_9236_n \
 N_noxref_27_c_9238_n N_noxref_27_M0_noxref_s )  PM_TMRDFFSNQX1\%noxref_27
x_PM_TMRDFFSNQX1\%noxref_28 ( N_noxref_28_c_9293_n N_noxref_28_c_9278_n \
 N_noxref_28_c_9282_n N_noxref_28_c_9285_n N_noxref_28_c_9304_n \
 N_noxref_28_M2_noxref_s )  PM_TMRDFFSNQX1\%noxref_28
x_PM_TMRDFFSNQX1\%noxref_29 ( N_noxref_29_c_9329_n N_noxref_29_c_9331_n \