// File: TMRDFFSNQNX1.spi.TMRDFFSNQNX1.pxi
// Created: Tue Oct 15 15:52:31 2024
// 
simulator lang=spectre
x_PM_TMRDFFSNQNX1\%GND ( GND N_GND_c_23_p N_GND_c_199_p N_GND_c_2_p \
 N_GND_c_24_p N_GND_c_25_p N_GND_c_30_p N_GND_c_31_p N_GND_c_57_p N_GND_c_68_p \
 N_GND_c_75_p N_GND_c_83_p N_GND_c_90_p N_GND_c_307_p N_GND_c_313_p \
 N_GND_c_209_p N_GND_c_216_p N_GND_c_115_p N_GND_c_122_p N_GND_c_125_p \
 N_GND_c_132_p N_GND_c_143_p N_GND_c_150_p N_GND_c_158_p N_GND_c_165_p \
 N_GND_c_329_p N_GND_c_335_p N_GND_c_219_p N_GND_c_226_p N_GND_c_238_p \
 N_GND_c_245_p N_GND_c_248_p N_GND_c_255_p N_GND_c_266_p N_GND_c_273_p \
 N_GND_c_290_p N_GND_c_297_p N_GND_c_351_p N_GND_c_379_p N_GND_c_380_p \
 N_GND_c_435_p N_GND_c_438_p N_GND_c_444_p N_GND_c_472_p N_GND_c_1_p \
 N_GND_c_3_p N_GND_c_4_p N_GND_c_5_p N_GND_c_6_p N_GND_c_7_p N_GND_c_8_p \
 N_GND_c_9_p N_GND_c_10_p N_GND_c_11_p N_GND_c_12_p N_GND_c_13_p N_GND_c_14_p \
 N_GND_c_15_p N_GND_c_16_p N_GND_c_17_p N_GND_c_18_p N_GND_c_19_p N_GND_c_20_p \
 N_GND_c_21_p N_GND_c_22_p N_GND_M0_noxref_d N_GND_M2_noxref_d \
 N_GND_M5_noxref_d N_GND_M8_noxref_d N_GND_M10_noxref_d N_GND_M12_noxref_d \
 N_GND_M15_noxref_d N_GND_M17_noxref_d N_GND_M20_noxref_d N_GND_M23_noxref_d \
 N_GND_M25_noxref_d N_GND_M27_noxref_d N_GND_M30_noxref_d N_GND_M32_noxref_d \
 N_GND_M35_noxref_d N_GND_M38_noxref_d N_GND_M40_noxref_d N_GND_M42_noxref_d \
 N_GND_M45_noxref_d N_GND_M47_noxref_d N_GND_M49_noxref_d )  \
 PM_TMRDFFSNQNX1\%GND
x_PM_TMRDFFSNQNX1\%VDD ( VDD N_VDD_c_999_p N_VDD_c_1000_p N_VDD_c_1001_p \
 N_VDD_c_1078_p N_VDD_c_1079_p N_VDD_c_1016_p N_VDD_c_1093_p N_VDD_c_1099_p \
 N_VDD_c_1103_p N_VDD_c_1522_p N_VDD_c_1020_p N_VDD_c_1041_p N_VDD_c_1047_p \
 N_VDD_c_1051_p N_VDD_c_1525_p N_VDD_c_1055_p N_VDD_c_1138_p N_VDD_c_1533_p \
 N_VDD_c_1534_p N_VDD_c_1106_p N_VDD_c_1191_p N_VDD_c_1536_p N_VDD_c_1537_p \
 N_VDD_c_1177_p N_VDD_c_1178_p N_VDD_c_1157_p N_VDD_c_1188_p N_VDD_c_1540_p \
 N_VDD_c_1212_p N_VDD_c_1213_p N_VDD_c_1542_p N_VDD_c_1543_p N_VDD_c_1228_p \
 N_VDD_c_1298_p N_VDD_c_1304_p N_VDD_c_1308_p N_VDD_c_1559_p N_VDD_c_1232_p \
 N_VDD_c_1253_p N_VDD_c_1259_p N_VDD_c_1263_p N_VDD_c_1562_p N_VDD_c_1267_p \
 N_VDD_c_1343_p N_VDD_c_1570_p N_VDD_c_1571_p N_VDD_c_1311_p N_VDD_c_1396_p \
 N_VDD_c_1573_p N_VDD_c_1574_p N_VDD_c_1382_p N_VDD_c_1383_p N_VDD_c_1362_p \
 N_VDD_c_1393_p N_VDD_c_1577_p N_VDD_c_1425_p N_VDD_c_1444_p N_VDD_c_1579_p \
 N_VDD_c_1580_p N_VDD_c_1459_p N_VDD_c_1636_p N_VDD_c_1666_p N_VDD_c_1595_p \
 N_VDD_c_1596_p N_VDD_c_1463_p N_VDD_c_1484_p N_VDD_c_1490_p N_VDD_c_1494_p \
 N_VDD_c_1599_p N_VDD_c_1498_p N_VDD_c_1640_p N_VDD_c_1647_p N_VDD_c_1648_p \
 N_VDD_c_1649_p N_VDD_c_1798_p N_VDD_c_1903_p N_VDD_c_1904_p N_VDD_c_1783_p \
 N_VDD_c_1733_p N_VDD_c_1761_p N_VDD_c_1794_p N_VDD_c_1912_p N_VDD_c_1879_p \
 N_VDD_c_1846_p N_VDD_c_1869_p N_VDD_c_1870_p N_VDD_c_977_n N_VDD_c_978_n \
 N_VDD_c_979_n N_VDD_c_980_n N_VDD_c_981_n N_VDD_c_982_n N_VDD_c_983_n \
 N_VDD_c_984_n N_VDD_c_985_n N_VDD_c_986_n N_VDD_c_987_n N_VDD_c_988_n \
 N_VDD_c_989_n N_VDD_c_990_n N_VDD_c_991_n N_VDD_c_992_n N_VDD_c_993_n \
 N_VDD_c_994_n N_VDD_c_995_n N_VDD_c_996_n N_VDD_c_997_n N_VDD_c_998_n \
 N_VDD_M51_noxref_s N_VDD_M52_noxref_d N_VDD_M54_noxref_d N_VDD_M55_noxref_s \
 N_VDD_M56_noxref_d N_VDD_M58_noxref_d N_VDD_M60_noxref_d N_VDD_M61_noxref_s \
 N_VDD_M62_noxref_d N_VDD_M64_noxref_d N_VDD_M66_noxref_d N_VDD_M67_noxref_s \
 N_VDD_M68_noxref_d N_VDD_M70_noxref_d N_VDD_M71_noxref_s N_VDD_M72_noxref_d \
 N_VDD_M74_noxref_d N_VDD_M75_noxref_s N_VDD_M76_noxref_d N_VDD_M78_noxref_d \
 N_VDD_M80_noxref_d N_VDD_M81_noxref_s N_VDD_M82_noxref_d N_VDD_M84_noxref_d \
 N_VDD_M85_noxref_s N_VDD_M86_noxref_d N_VDD_M88_noxref_d N_VDD_M90_noxref_d \
 N_VDD_M91_noxref_s N_VDD_M92_noxref_d N_VDD_M94_noxref_d N_VDD_M96_noxref_d \
 N_VDD_M97_noxref_s N_VDD_M98_noxref_d N_VDD_M100_noxref_d N_VDD_M101_noxref_s \
 N_VDD_M102_noxref_d N_VDD_M104_noxref_d N_VDD_M105_noxref_s \
 N_VDD_M106_noxref_d N_VDD_M108_noxref_d N_VDD_M110_noxref_d \
 N_VDD_M111_noxref_s N_VDD_M112_noxref_d N_VDD_M114_noxref_d \
 N_VDD_M115_noxref_s N_VDD_M116_noxref_d N_VDD_M118_noxref_d \
 N_VDD_M120_noxref_d N_VDD_M121_noxref_s N_VDD_M122_noxref_d \
 N_VDD_M124_noxref_d N_VDD_M126_noxref_d N_VDD_M127_noxref_s \
 N_VDD_M128_noxref_d N_VDD_M130_noxref_d N_VDD_M131_noxref_s \
 N_VDD_M132_noxref_d N_VDD_M134_noxref_d N_VDD_M135_noxref_s \
 N_VDD_M136_noxref_d N_VDD_M138_noxref_d N_VDD_M140_noxref_d \
 N_VDD_M141_noxref_s N_VDD_M142_noxref_d N_VDD_M144_noxref_d )  \
 PM_TMRDFFSNQNX1\%VDD
x_PM_TMRDFFSNQNX1\%noxref_3 ( N_noxref_3_c_2041_n N_noxref_3_c_2045_n \
 N_noxref_3_c_2047_n N_noxref_3_c_2051_n N_noxref_3_c_2081_n \
 N_noxref_3_c_2085_n N_noxref_3_c_2087_n N_noxref_3_c_2053_n \
 N_noxref_3_c_2183_p N_noxref_3_c_2054_n N_noxref_3_c_2056_n \
 N_noxref_3_c_2057_n N_noxref_3_c_2157_p N_noxref_3_M2_noxref_g \
 N_noxref_3_M5_noxref_g N_noxref_3_M55_noxref_g N_noxref_3_M56_noxref_g \
 N_noxref_3_M61_noxref_g N_noxref_3_M62_noxref_g N_noxref_3_c_2058_n \
 N_noxref_3_c_2060_n N_noxref_3_c_2061_n N_noxref_3_c_2062_n \
 N_noxref_3_c_2063_n N_noxref_3_c_2064_n N_noxref_3_c_2065_n \
 N_noxref_3_c_2067_n N_noxref_3_c_2145_p N_noxref_3_c_2106_n \
 N_noxref_3_c_2068_n N_noxref_3_c_2070_n N_noxref_3_c_2071_n \
 N_noxref_3_c_2072_n N_noxref_3_c_2073_n N_noxref_3_c_2074_n \
 N_noxref_3_c_2075_n N_noxref_3_c_2077_n N_noxref_3_c_2124_p \
 N_noxref_3_c_2108_n N_noxref_3_M1_noxref_d N_noxref_3_M51_noxref_d \
 N_noxref_3_M53_noxref_d )  PM_TMRDFFSNQNX1\%noxref_3
x_PM_TMRDFFSNQNX1\%noxref_4 ( N_noxref_4_c_2285_n N_noxref_4_c_2286_n \
 N_noxref_4_c_2301_n N_noxref_4_c_2305_n N_noxref_4_c_2307_n \
 N_noxref_4_c_2311_n N_noxref_4_c_2287_n N_noxref_4_c_2419_p \
 N_noxref_4_c_2288_n N_noxref_4_c_2289_n N_noxref_4_c_2429_p \
 N_noxref_4_c_2355_p N_noxref_4_M8_noxref_g N_noxref_4_M67_noxref_g \
 N_noxref_4_M68_noxref_g N_noxref_4_c_2290_n N_noxref_4_c_2292_n \
 N_noxref_4_c_2293_n N_noxref_4_c_2294_n N_noxref_4_c_2295_n \
 N_noxref_4_c_2296_n N_noxref_4_c_2297_n N_noxref_4_c_2299_n \
 N_noxref_4_c_2323_n N_noxref_4_M7_noxref_d N_noxref_4_M61_noxref_d \
 N_noxref_4_M63_noxref_d N_noxref_4_M65_noxref_d )  PM_TMRDFFSNQNX1\%noxref_4
x_PM_TMRDFFSNQNX1\%noxref_5 ( N_noxref_5_c_2464_n N_noxref_5_c_2471_n \
 N_noxref_5_c_2472_n N_noxref_5_c_2475_n N_noxref_5_c_2532_n \
 N_noxref_5_c_2449_n N_noxref_5_c_2478_n N_noxref_5_c_2482_n \
 N_noxref_5_c_2484_n N_noxref_5_c_2488_n N_noxref_5_c_2451_n \
 N_noxref_5_c_2541_n N_noxref_5_c_2583_p N_noxref_5_c_2452_n \
 N_noxref_5_c_2669_p N_noxref_5_c_2584_p N_noxref_5_c_2495_n \
 N_noxref_5_c_2542_n N_noxref_5_M1_noxref_g N_noxref_5_M10_noxref_g \
 N_noxref_5_M53_noxref_g N_noxref_5_M54_noxref_g N_noxref_5_M71_noxref_g \
 N_noxref_5_M72_noxref_g N_noxref_5_c_2548_n N_noxref_5_c_2549_n \
 N_noxref_5_c_2550_n N_noxref_5_c_2551_n N_noxref_5_c_2553_n \
 N_noxref_5_c_2554_n N_noxref_5_c_2556_n N_noxref_5_c_2557_n \
 N_noxref_5_c_2453_n N_noxref_5_c_2455_n N_noxref_5_c_2456_n \
 N_noxref_5_c_2457_n N_noxref_5_c_2458_n N_noxref_5_c_2459_n \
 N_noxref_5_c_2460_n N_noxref_5_c_2462_n N_noxref_5_c_2559_n \
 N_noxref_5_c_2560_n N_noxref_5_c_2562_n N_noxref_5_c_2505_n \
 N_noxref_5_M4_noxref_d N_noxref_5_M55_noxref_d N_noxref_5_M57_noxref_d \
 N_noxref_5_M59_noxref_d )  PM_TMRDFFSNQNX1\%noxref_5
x_PM_TMRDFFSNQNX1\%noxref_6 ( N_noxref_6_c_2773_n N_noxref_6_c_2775_n \
 N_noxref_6_c_2781_n N_noxref_6_c_2785_n N_noxref_6_c_2825_n \
 N_noxref_6_c_2827_n N_noxref_6_c_2727_n N_noxref_6_c_2728_n \
 N_noxref_6_c_2737_n N_noxref_6_c_2741_n N_noxref_6_c_2743_n \
 N_noxref_6_c_2729_n N_noxref_6_c_2963_p N_noxref_6_c_2730_n \
 N_noxref_6_c_2731_n N_noxref_6_c_2943_p N_noxref_6_M4_noxref_g \
 N_noxref_6_M7_noxref_g N_noxref_6_M14_noxref_g N_noxref_6_M59_noxref_g \
 N_noxref_6_M60_noxref_g N_noxref_6_M65_noxref_g N_noxref_6_M66_noxref_g \
 N_noxref_6_M79_noxref_g N_noxref_6_M80_noxref_g N_noxref_6_c_2842_n \
 N_noxref_6_c_2843_n N_noxref_6_c_2844_n N_noxref_6_c_2845_n \
 N_noxref_6_c_2846_n N_noxref_6_c_2848_n N_noxref_6_c_2849_n \
 N_noxref_6_c_2800_n N_noxref_6_c_2801_n N_noxref_6_c_2802_n \
 N_noxref_6_c_2803_n N_noxref_6_c_2804_n N_noxref_6_c_2806_n \
 N_noxref_6_c_2807_n N_noxref_6_c_2874_p N_noxref_6_c_2875_p \
 N_noxref_6_c_2876_p N_noxref_6_c_2877_p N_noxref_6_c_2865_p \
 N_noxref_6_c_2879_p N_noxref_6_c_2866_p N_noxref_6_c_2780_n \
 N_noxref_6_c_2852_n N_noxref_6_c_2854_n N_noxref_6_c_2809_n \
 N_noxref_6_c_2810_n N_noxref_6_c_2812_n N_noxref_6_c_2869_p \
 N_noxref_6_c_2870_p N_noxref_6_c_2864_p N_noxref_6_M9_noxref_d \
 N_noxref_6_M67_noxref_d N_noxref_6_M69_noxref_d )  PM_TMRDFFSNQNX1\%noxref_6
x_PM_TMRDFFSNQNX1\%noxref_7 ( N_noxref_7_c_3055_n N_noxref_7_c_3094_n \
 N_noxref_7_c_3096_n N_noxref_7_c_3051_n N_noxref_7_c_3059_n \
 N_noxref_7_c_3063_n N_noxref_7_c_3065_n N_noxref_7_c_3069_n \
 N_noxref_7_c_3053_n N_noxref_7_c_3168_p N_noxref_7_c_3073_n \
 N_noxref_7_c_3177_p N_noxref_7_c_3133_n N_noxref_7_M11_noxref_g \
 N_noxref_7_M73_noxref_g N_noxref_7_M74_noxref_g N_noxref_7_c_3104_n \
 N_noxref_7_c_3107_n N_noxref_7_c_3109_n N_noxref_7_c_3163_p \
 N_noxref_7_c_3210_p N_noxref_7_c_3166_p N_noxref_7_c_3112_n \
 N_noxref_7_c_3113_n N_noxref_7_c_3114_n N_noxref_7_c_3198_p \
 N_noxref_7_c_3116_n N_noxref_7_M14_noxref_d N_noxref_7_M75_noxref_d \
 N_noxref_7_M77_noxref_d N_noxref_7_M79_noxref_d )  PM_TMRDFFSNQNX1\%noxref_7
x_PM_TMRDFFSNQNX1\%noxref_8 ( N_noxref_8_c_3234_n N_noxref_8_c_3235_n \
 N_noxref_8_c_3236_n N_noxref_8_c_3237_n N_noxref_8_c_3266_n \
 N_noxref_8_c_3270_n N_noxref_8_c_3272_n N_noxref_8_c_3238_n \
 N_noxref_8_c_3402_p N_noxref_8_c_3239_n N_noxref_8_c_3241_n \
 N_noxref_8_c_3242_n N_noxref_8_c_3336_p N_noxref_8_M17_noxref_g \
 N_noxref_8_M20_noxref_g N_noxref_8_M85_noxref_g N_noxref_8_M86_noxref_g \
 N_noxref_8_M91_noxref_g N_noxref_8_M92_noxref_g N_noxref_8_c_3243_n \
 N_noxref_8_c_3245_n N_noxref_8_c_3246_n N_noxref_8_c_3247_n \
 N_noxref_8_c_3248_n N_noxref_8_c_3249_n N_noxref_8_c_3250_n \
 N_noxref_8_c_3252_n N_noxref_8_c_3325_p N_noxref_8_c_3291_n \
 N_noxref_8_c_3253_n N_noxref_8_c_3255_n N_noxref_8_c_3256_n \
 N_noxref_8_c_3257_n N_noxref_8_c_3258_n N_noxref_8_c_3259_n \
 N_noxref_8_c_3260_n N_noxref_8_c_3262_n N_noxref_8_c_3310_p \
 N_noxref_8_c_3293_n N_noxref_8_M16_noxref_d N_noxref_8_M81_noxref_d \
 N_noxref_8_M83_noxref_d )  PM_TMRDFFSNQNX1\%noxref_8
x_PM_TMRDFFSNQNX1\%noxref_9 ( N_noxref_9_c_3466_n N_noxref_9_c_3467_n \
 N_noxref_9_c_3482_n N_noxref_9_c_3486_n N_noxref_9_c_3488_n \
 N_noxref_9_c_3492_n N_noxref_9_c_3468_n N_noxref_9_c_3598_p \
 N_noxref_9_c_3469_n N_noxref_9_c_3470_n N_noxref_9_c_3608_p \
 N_noxref_9_c_3534_p N_noxref_9_M23_noxref_g N_noxref_9_M97_noxref_g \
 N_noxref_9_M98_noxref_g N_noxref_9_c_3471_n N_noxref_9_c_3473_n \
 N_noxref_9_c_3474_n N_noxref_9_c_3475_n N_noxref_9_c_3476_n \
 N_noxref_9_c_3477_n N_noxref_9_c_3478_n N_noxref_9_c_3480_n \
 N_noxref_9_c_3504_n N_noxref_9_M22_noxref_d N_noxref_9_M91_noxref_d \
 N_noxref_9_M93_noxref_d N_noxref_9_M95_noxref_d )  PM_TMRDFFSNQNX1\%noxref_9
x_PM_TMRDFFSNQNX1\%noxref_10 ( N_noxref_10_c_3647_n N_noxref_10_c_3697_n \
 N_noxref_10_c_3648_n N_noxref_10_c_3651_n N_noxref_10_c_3704_n \
 N_noxref_10_c_3632_n N_noxref_10_c_3654_n N_noxref_10_c_3658_n \
 N_noxref_10_c_3660_n N_noxref_10_c_3664_n N_noxref_10_c_3634_n \
 N_noxref_10_c_3865_p N_noxref_10_c_3754_p N_noxref_10_c_3635_n \
 N_noxref_10_c_3844_p N_noxref_10_c_3755_p N_noxref_10_c_3671_n \
 N_noxref_10_c_3713_n N_noxref_10_M16_noxref_g N_noxref_10_M25_noxref_g \
 N_noxref_10_M83_noxref_g N_noxref_10_M84_noxref_g N_noxref_10_M101_noxref_g \
 N_noxref_10_M102_noxref_g N_noxref_10_c_3719_n N_noxref_10_c_3720_n \
 N_noxref_10_c_3721_n N_noxref_10_c_3722_n N_noxref_10_c_3724_n \
 N_noxref_10_c_3725_n N_noxref_10_c_3727_n N_noxref_10_c_3728_n \
 N_noxref_10_c_3636_n N_noxref_10_c_3638_n N_noxref_10_c_3639_n \
 N_noxref_10_c_3640_n N_noxref_10_c_3641_n N_noxref_10_c_3642_n \
 N_noxref_10_c_3643_n N_noxref_10_c_3645_n N_noxref_10_c_3730_n \
 N_noxref_10_c_3731_n N_noxref_10_c_3733_n N_noxref_10_c_3681_n \
 N_noxref_10_M19_noxref_d N_noxref_10_M85_noxref_d N_noxref_10_M87_noxref_d \
 N_noxref_10_M89_noxref_d )  PM_TMRDFFSNQNX1\%noxref_10
x_PM_TMRDFFSNQNX1\%noxref_11 ( N_noxref_11_c_3960_n N_noxref_11_c_4003_n \
 N_noxref_11_c_3965_n N_noxref_11_c_3967_n N_noxref_11_c_4007_n \
 N_noxref_11_c_4009_n N_noxref_11_c_3914_n N_noxref_11_c_3915_n \
 N_noxref_11_c_3924_n N_noxref_11_c_3928_n N_noxref_11_c_3930_n \
 N_noxref_11_c_3916_n N_noxref_11_c_4143_p N_noxref_11_c_3917_n \
 N_noxref_11_c_3918_n N_noxref_11_c_4125_p N_noxref_11_M19_noxref_g \
 N_noxref_11_M22_noxref_g N_noxref_11_M29_noxref_g N_noxref_11_M89_noxref_g \
 N_noxref_11_M90_noxref_g N_noxref_11_M95_noxref_g N_noxref_11_M96_noxref_g \
 N_noxref_11_M109_noxref_g N_noxref_11_M110_noxref_g N_noxref_11_c_4024_n \
 N_noxref_11_c_4025_n N_noxref_11_c_4026_n N_noxref_11_c_4027_n \
 N_noxref_11_c_4028_n N_noxref_11_c_4030_n N_noxref_11_c_4031_n \
 N_noxref_11_c_3982_n N_noxref_11_c_3983_n N_noxref_11_c_3984_n \
 N_noxref_11_c_3985_n N_noxref_11_c_3986_n N_noxref_11_c_3988_n \
 N_noxref_11_c_3989_n N_noxref_11_c_4056_p N_noxref_11_c_4057_p \
 N_noxref_11_c_4058_p N_noxref_11_c_4059_p N_noxref_11_c_4047_p \
 N_noxref_11_c_4061_p N_noxref_11_c_4048_p N_noxref_11_c_4033_n \
 N_noxref_11_c_4034_n N_noxref_11_c_4036_n N_noxref_11_c_3991_n \
 N_noxref_11_c_3992_n N_noxref_11_c_3994_n N_noxref_11_c_4051_p \
 N_noxref_11_c_4052_p N_noxref_11_c_4046_p N_noxref_11_M24_noxref_d \
 N_noxref_11_M97_noxref_d N_noxref_11_M99_noxref_d )  PM_TMRDFFSNQNX1\%noxref_11
x_PM_TMRDFFSNQNX1\%noxref_12 ( N_noxref_12_c_4240_n N_noxref_12_c_4279_n \
 N_noxref_12_c_4281_n N_noxref_12_c_4236_n N_noxref_12_c_4244_n \
 N_noxref_12_c_4248_n N_noxref_12_c_4250_n N_noxref_12_c_4254_n \
 N_noxref_12_c_4238_n N_noxref_12_c_4351_p N_noxref_12_c_4258_n \
 N_noxref_12_c_4360_p N_noxref_12_c_4318_n N_noxref_12_M26_noxref_g \
 N_noxref_12_M103_noxref_g N_noxref_12_M104_noxref_g N_noxref_12_c_4289_n \
 N_noxref_12_c_4292_n N_noxref_12_c_4294_n N_noxref_12_c_4344_p \
 N_noxref_12_c_4389_p N_noxref_12_c_4349_p N_noxref_12_c_4297_n \
 N_noxref_12_c_4298_n N_noxref_12_c_4299_n N_noxref_12_c_4377_p \
 N_noxref_12_c_4301_n N_noxref_12_M29_noxref_d N_noxref_12_M105_noxref_d \
 N_noxref_12_M107_noxref_d N_noxref_12_M109_noxref_d )  \
 PM_TMRDFFSNQNX1\%noxref_12
x_PM_TMRDFFSNQNX1\%D ( N_D_c_4417_n N_D_c_4425_n N_D_c_4426_n N_D_c_4557_n D D \
 D D D D D D D D D D D N_D_c_4432_n N_D_c_4433_n N_D_c_4434_n N_D_M0_noxref_g \
 N_D_M15_noxref_g N_D_M30_noxref_g N_D_M51_noxref_g N_D_M52_noxref_g \
 N_D_M81_noxref_g N_D_M82_noxref_g N_D_M111_noxref_g N_D_M112_noxref_g \
 N_D_c_4435_n N_D_c_4437_n N_D_c_4438_n N_D_c_4439_n N_D_c_4440_n N_D_c_4441_n \
 N_D_c_4442_n N_D_c_4444_n N_D_c_4445_n N_D_c_4447_n N_D_c_4448_n N_D_c_4449_n \
 N_D_c_4450_n N_D_c_4451_n N_D_c_4452_n N_D_c_4454_n N_D_c_4455_n N_D_c_4457_n \
 N_D_c_4458_n N_D_c_4459_n N_D_c_4460_n N_D_c_4461_n N_D_c_4462_n N_D_c_4464_n \
 N_D_c_4488_n N_D_c_4489_n N_D_c_4490_n )  PM_TMRDFFSNQNX1\%D
x_PM_TMRDFFSNQNX1\%noxref_14 ( N_noxref_14_c_4740_n N_noxref_14_c_4741_n \
 N_noxref_14_c_4742_n N_noxref_14_c_4743_n N_noxref_14_c_4772_n \
 N_noxref_14_c_4776_n N_noxref_14_c_4778_n N_noxref_14_c_4744_n \
 N_noxref_14_c_4896_p N_noxref_14_c_4745_n N_noxref_14_c_4747_n \
 N_noxref_14_c_4748_n N_noxref_14_c_4879_p N_noxref_14_M32_noxref_g \
 N_noxref_14_M35_noxref_g N_noxref_14_M115_noxref_g N_noxref_14_M116_noxref_g \
 N_noxref_14_M121_noxref_g N_noxref_14_M122_noxref_g N_noxref_14_c_4749_n \
 N_noxref_14_c_4751_n N_noxref_14_c_4752_n N_noxref_14_c_4753_n \
 N_noxref_14_c_4754_n N_noxref_14_c_4755_n N_noxref_14_c_4756_n \
 N_noxref_14_c_4758_n N_noxref_14_c_4837_p N_noxref_14_c_4797_n \
 N_noxref_14_c_4759_n N_noxref_14_c_4761_n N_noxref_14_c_4762_n \
 N_noxref_14_c_4763_n N_noxref_14_c_4764_n N_noxref_14_c_4765_n \
 N_noxref_14_c_4766_n N_noxref_14_c_4768_n N_noxref_14_c_4822_p \
 N_noxref_14_c_4799_n N_noxref_14_M31_noxref_d N_noxref_14_M111_noxref_d \
 N_noxref_14_M113_noxref_d )  PM_TMRDFFSNQNX1\%noxref_14
x_PM_TMRDFFSNQNX1\%noxref_15 ( N_noxref_15_c_4976_n N_noxref_15_c_4977_n \
 N_noxref_15_c_4992_n N_noxref_15_c_4996_n N_noxref_15_c_4998_n \
 N_noxref_15_c_5002_n N_noxref_15_c_4978_n N_noxref_15_c_5069_p \
 N_noxref_15_c_4979_n N_noxref_15_c_4980_n N_noxref_15_c_5079_p \
 N_noxref_15_c_5087_p N_noxref_15_M38_noxref_g N_noxref_15_M127_noxref_g \
 N_noxref_15_M128_noxref_g N_noxref_15_c_4981_n N_noxref_15_c_4983_n \
 N_noxref_15_c_4984_n N_noxref_15_c_4985_n N_noxref_15_c_4986_n \
 N_noxref_15_c_4987_n N_noxref_15_c_4988_n N_noxref_15_c_4990_n \
 N_noxref_15_c_5014_n N_noxref_15_M37_noxref_d N_noxref_15_M121_noxref_d \
 N_noxref_15_M123_noxref_d N_noxref_15_M125_noxref_d )  \
 PM_TMRDFFSNQNX1\%noxref_15
x_PM_TMRDFFSNQNX1\%CLK ( N_CLK_c_5149_n N_CLK_c_5160_n N_CLK_c_5161_n \
 N_CLK_c_5185_n N_CLK_c_5186_n N_CLK_c_5197_n N_CLK_c_5198_n N_CLK_c_5222_n \
 N_CLK_c_5223_n N_CLK_c_5234_n CLK CLK CLK CLK CLK CLK CLK CLK CLK CLK CLK CLK \
 CLK CLK CLK N_CLK_c_5140_n N_CLK_c_5309_n N_CLK_c_5141_n N_CLK_c_5143_n \
 N_CLK_c_5468_n N_CLK_c_5144_n N_CLK_c_5146_n N_CLK_c_5646_n N_CLK_c_5147_n \
 N_CLK_M3_noxref_g N_CLK_M9_noxref_g N_CLK_M18_noxref_g N_CLK_M24_noxref_g \
 N_CLK_M33_noxref_g N_CLK_M39_noxref_g N_CLK_M57_noxref_g N_CLK_M58_noxref_g \
 N_CLK_M69_noxref_g N_CLK_M70_noxref_g N_CLK_M87_noxref_g N_CLK_M88_noxref_g \
 N_CLK_M99_noxref_g N_CLK_M100_noxref_g N_CLK_M117_noxref_g \
 N_CLK_M118_noxref_g N_CLK_M129_noxref_g N_CLK_M130_noxref_g N_CLK_c_5287_n \
 N_CLK_c_5290_n N_CLK_c_5813_p N_CLK_c_5820_p N_CLK_c_5292_n N_CLK_c_5293_n \
 N_CLK_c_5294_n N_CLK_c_5295_n N_CLK_c_5355_n N_CLK_c_5318_n N_CLK_c_5321_n \
 N_CLK_c_5323_n N_CLK_c_5404_n N_CLK_c_5406_n N_CLK_c_5407_n N_CLK_c_5326_n \
 N_CLK_c_5327_n N_CLK_c_5447_n N_CLK_c_5450_n N_CLK_c_5842_p N_CLK_c_5849_p \
 N_CLK_c_5452_n N_CLK_c_5453_n N_CLK_c_5454_n N_CLK_c_5455_n N_CLK_c_5521_n \
 N_CLK_c_5477_n N_CLK_c_5480_n N_CLK_c_5482_n N_CLK_c_5570_n N_CLK_c_5572_n \
 N_CLK_c_5573_n N_CLK_c_5485_n N_CLK_c_5486_n N_CLK_c_5627_n N_CLK_c_5630_n \
 N_CLK_c_5871_p N_CLK_c_5878_p N_CLK_c_5632_n N_CLK_c_5633_n N_CLK_c_5634_n \
 N_CLK_c_5635_n N_CLK_c_5692_p N_CLK_c_5655_n N_CLK_c_5658_n N_CLK_c_5660_n \
 N_CLK_c_5676_p N_CLK_c_5774_p N_CLK_c_5710_p N_CLK_c_5663_n N_CLK_c_5664_n \
 N_CLK_c_5298_n N_CLK_c_5328_n N_CLK_c_5415_n N_CLK_c_5330_n N_CLK_c_5457_n \
 N_CLK_c_5487_n N_CLK_c_5581_n N_CLK_c_5489_n N_CLK_c_5637_n N_CLK_c_5665_n \
 N_CLK_c_5754_p N_CLK_c_5667_n )  PM_TMRDFFSNQNX1\%CLK
x_PM_TMRDFFSNQNX1\%noxref_17 ( N_noxref_17_c_5907_n N_noxref_17_c_5963_n \
 N_noxref_17_c_5908_n N_noxref_17_c_5917_n N_noxref_17_c_5966_n \
 N_noxref_17_c_5892_n N_noxref_17_c_5920_n N_noxref_17_c_5924_n \
 N_noxref_17_c_5926_n N_noxref_17_c_5930_n N_noxref_17_c_5894_n \
 N_noxref_17_c_6059_p N_noxref_17_c_6047_n N_noxref_17_c_5895_n \
 N_noxref_17_c_6050_n N_noxref_17_c_6084_p N_noxref_17_c_5937_n \
 N_noxref_17_c_6002_n N_noxref_17_M31_noxref_g N_noxref_17_M40_noxref_g \
 N_noxref_17_M113_noxref_g N_noxref_17_M114_noxref_g N_noxref_17_M131_noxref_g \
 N_noxref_17_M132_noxref_g N_noxref_17_c_5974_n N_noxref_17_c_5977_n \
 N_noxref_17_c_5979_n N_noxref_17_c_6011_n N_noxref_17_c_6013_n \
 N_noxref_17_c_6014_n N_noxref_17_c_5982_n N_noxref_17_c_5983_n \
 N_noxref_17_c_5896_n N_noxref_17_c_5898_n N_noxref_17_c_5899_n \
 N_noxref_17_c_5900_n N_noxref_17_c_5901_n N_noxref_17_c_5902_n \
 N_noxref_17_c_5903_n N_noxref_17_c_5905_n N_noxref_17_c_5984_n \
 N_noxref_17_c_6020_n N_noxref_17_c_5986_n N_noxref_17_c_5947_n \
 N_noxref_17_M34_noxref_d N_noxref_17_M115_noxref_d N_noxref_17_M117_noxref_d \
 N_noxref_17_M119_noxref_d )  PM_TMRDFFSNQNX1\%noxref_17
x_PM_TMRDFFSNQNX1\%SN ( N_SN_c_6183_n N_SN_c_6193_n N_SN_c_6194_n \
 N_SN_c_6204_n N_SN_c_6205_n N_SN_c_6215_n N_SN_c_6216_n N_SN_c_6226_n \
 N_SN_c_6227_n N_SN_c_6237_n SN SN SN SN SN SN SN SN SN N_SN_c_6238_n \
 N_SN_c_6239_n N_SN_c_6240_n N_SN_c_6241_n N_SN_c_6242_n N_SN_c_6243_n \
 N_SN_M6_noxref_g N_SN_M13_noxref_g N_SN_M21_noxref_g N_SN_M28_noxref_g \
 N_SN_M36_noxref_g N_SN_M43_noxref_g N_SN_M63_noxref_g N_SN_M64_noxref_g \
 N_SN_M77_noxref_g N_SN_M78_noxref_g N_SN_M93_noxref_g N_SN_M94_noxref_g \
 N_SN_M107_noxref_g N_SN_M108_noxref_g N_SN_M123_noxref_g N_SN_M124_noxref_g \
 N_SN_M137_noxref_g N_SN_M138_noxref_g N_SN_c_6290_n N_SN_c_6293_n \
 N_SN_c_6789_p N_SN_c_6797_p N_SN_c_6295_n N_SN_c_6296_n N_SN_c_6297_n \
 N_SN_c_6298_n N_SN_c_6315_n N_SN_c_6761_p N_SN_c_6763_p N_SN_c_6829_p \
 N_SN_c_6837_p N_SN_c_6361_n N_SN_c_6362_n N_SN_c_6363_n N_SN_c_6364_n \
 N_SN_c_6367_n N_SN_c_6406_n N_SN_c_6409_n N_SN_c_6871_p N_SN_c_6879_p \
 N_SN_c_6411_n N_SN_c_6412_n N_SN_c_6413_n N_SN_c_6414_n N_SN_c_6431_n \
 N_SN_c_6688_p N_SN_c_6690_p N_SN_c_6911_p N_SN_c_6919_p N_SN_c_6479_n \
 N_SN_c_6480_n N_SN_c_6481_n N_SN_c_6482_n N_SN_c_6485_n N_SN_c_6542_n \
 N_SN_c_6545_n N_SN_c_6953_p N_SN_c_6961_p N_SN_c_6547_n N_SN_c_6548_n \
 N_SN_c_6549_n N_SN_c_6550_n N_SN_c_6567_n N_SN_c_6718_p N_SN_c_6720_p \
 N_SN_c_6989_p N_SN_c_6996_p N_SN_c_6632_p N_SN_c_6633_p N_SN_c_6634_p \
 N_SN_c_6619_p N_SN_c_6649_p N_SN_c_6300_n N_SN_c_6370_n N_SN_c_6416_n \
 N_SN_c_6488_n N_SN_c_6552_n N_SN_c_6620_p )  PM_TMRDFFSNQNX1\%SN
x_PM_TMRDFFSNQNX1\%noxref_19 ( N_noxref_19_c_7048_n N_noxref_19_c_7087_n \
 N_noxref_19_c_7053_n N_noxref_19_c_7055_n N_noxref_19_c_7009_n \
 N_noxref_19_c_7092_n N_noxref_19_c_7001_n N_noxref_19_c_7002_n \
 N_noxref_19_c_7012_n N_noxref_19_c_7016_n N_noxref_19_c_7018_n \
 N_noxref_19_c_7003_n N_noxref_19_c_7192_n N_noxref_19_c_7004_n \
 N_noxref_19_c_7005_n N_noxref_19_c_7115_n N_noxref_19_M34_noxref_g \
 N_noxref_19_M37_noxref_g N_noxref_19_M44_noxref_g N_noxref_19_M119_noxref_g \
 N_noxref_19_M120_noxref_g N_noxref_19_M125_noxref_g N_noxref_19_M126_noxref_g \
 N_noxref_19_M139_noxref_g N_noxref_19_M140_noxref_g N_noxref_19_c_7119_n \
 N_noxref_19_c_7120_n N_noxref_19_c_7121_n N_noxref_19_c_7171_n \
 N_noxref_19_c_7172_n N_noxref_19_c_7174_n N_noxref_19_c_7175_n \
 N_noxref_19_c_7070_n N_noxref_19_c_7071_n N_noxref_19_c_7072_n \
 N_noxref_19_c_7073_n N_noxref_19_c_7074_n N_noxref_19_c_7076_n \
 N_noxref_19_c_7077_n N_noxref_19_c_7209_n N_noxref_19_c_7210_n \
 N_noxref_19_c_7211_n N_noxref_19_c_7248_p N_noxref_19_c_7236_p \
 N_noxref_19_c_7250_p N_noxref_19_c_7237_p N_noxref_19_c_7122_n \
 N_noxref_19_c_7124_n N_noxref_19_c_7125_n N_noxref_19_c_7079_n \
 N_noxref_19_c_7080_n N_noxref_19_c_7082_n N_noxref_19_c_7221_n \
 N_noxref_19_c_7224_n N_noxref_19_c_7225_n N_noxref_19_M39_noxref_d \
 N_noxref_19_M127_noxref_d N_noxref_19_M129_noxref_d )  \
 PM_TMRDFFSNQNX1\%noxref_19
x_PM_TMRDFFSNQNX1\%noxref_20 ( N_noxref_20_c_7326_n N_noxref_20_c_7329_n \
 N_noxref_20_c_7370_n N_noxref_20_c_7322_n N_noxref_20_c_7332_n \
 N_noxref_20_c_7336_n N_noxref_20_c_7338_n N_noxref_20_c_7342_n \
 N_noxref_20_c_7324_n N_noxref_20_c_7433_p N_noxref_20_c_7347_n \
 N_noxref_20_c_7399_n N_noxref_20_c_7419_n N_noxref_20_M41_noxref_g \
 N_noxref_20_M133_noxref_g N_noxref_20_M134_noxref_g N_noxref_20_c_7378_n \
 N_noxref_20_c_7381_n N_noxref_20_c_7383_n N_noxref_20_c_7461_p \
 N_noxref_20_c_7477_p N_noxref_20_c_7400_n N_noxref_20_c_7386_n \
 N_noxref_20_c_7387_n N_noxref_20_c_7388_n N_noxref_20_c_7463_p \
 N_noxref_20_c_7390_n N_noxref_20_M44_noxref_d N_noxref_20_M135_noxref_d \
 N_noxref_20_M137_noxref_d N_noxref_20_M139_noxref_d )  \
 PM_TMRDFFSNQNX1\%noxref_20
x_PM_TMRDFFSNQNX1\%noxref_21 ( N_noxref_21_c_7505_n N_noxref_21_c_7506_n \
 N_noxref_21_c_7507_n N_noxref_21_c_7508_n N_noxref_21_c_7640_n \
 N_noxref_21_c_7509_n N_noxref_21_c_7642_n N_noxref_21_c_7518_n \
 N_noxref_21_c_7545_n N_noxref_21_c_7546_n N_noxref_21_c_7550_n \
 N_noxref_21_c_7552_n N_noxref_21_c_7519_n N_noxref_21_c_7690_n \
 N_noxref_21_c_7520_n N_noxref_21_c_7522_n N_noxref_21_c_7560_n \
 N_noxref_21_c_7523_n N_noxref_21_c_7525_n N_noxref_21_c_7620_n \
 N_noxref_21_c_7817_p N_noxref_21_M27_noxref_g N_noxref_21_M46_noxref_g \
 N_noxref_21_M50_noxref_g N_noxref_21_M105_noxref_g N_noxref_21_M106_noxref_g \
 N_noxref_21_M143_noxref_g N_noxref_21_M144_noxref_g N_noxref_21_M151_noxref_g \
 N_noxref_21_M152_noxref_g N_noxref_21_c_7527_n N_noxref_21_c_7529_n \
 N_noxref_21_c_7530_n N_noxref_21_c_7531_n N_noxref_21_c_7532_n \
 N_noxref_21_c_7533_n N_noxref_21_c_7534_n N_noxref_21_c_7536_n \
 N_noxref_21_c_7624_n N_noxref_21_c_7575_n N_noxref_21_c_7770_p \
 N_noxref_21_c_7772_p N_noxref_21_c_7773_p N_noxref_21_c_7577_n \
 N_noxref_21_c_7848_p N_noxref_21_c_7849_p N_noxref_21_c_7780_p \
 N_noxref_21_c_7783_p N_noxref_21_c_7813_p N_noxref_21_c_7824_p \
 N_noxref_21_c_7815_p N_noxref_21_c_7865_p N_noxref_21_c_7856_p \
 N_noxref_21_c_7826_p N_noxref_21_c_7823_p N_noxref_21_c_7827_p \
 N_noxref_21_c_7537_n N_noxref_21_c_7931_p N_noxref_21_c_7578_n \
 N_noxref_21_c_7801_p N_noxref_21_c_7867_p N_noxref_21_c_7807_p \
 N_noxref_21_M26_noxref_d N_noxref_21_M101_noxref_d N_noxref_21_M103_noxref_d ) \
 PM_TMRDFFSNQNX1\%noxref_21
x_PM_TMRDFFSNQNX1\%noxref_22 ( N_noxref_22_c_7943_n N_noxref_22_c_7949_n \
 N_noxref_22_c_7954_n N_noxref_22_c_7958_n N_noxref_22_c_7960_n \
 N_noxref_22_c_7963_n N_noxref_22_c_7996_p N_noxref_22_c_7965_n \
 N_noxref_22_c_8008_p N_noxref_22_M141_noxref_d N_noxref_22_M143_noxref_d \
 N_noxref_22_M145_noxref_s N_noxref_22_M146_noxref_d N_noxref_22_M148_noxref_d \
 )  PM_TMRDFFSNQNX1\%noxref_22
x_PM_TMRDFFSNQNX1\%noxref_23 ( N_noxref_23_c_8075_n N_noxref_23_c_8079_n \
 N_noxref_23_c_8082_n N_noxref_23_c_8087_n N_noxref_23_c_8090_n \
 N_noxref_23_c_8095_n N_noxref_23_c_8099_n N_noxref_23_c_8103_n \
 N_noxref_23_c_8105_n N_noxref_23_c_8034_n N_noxref_23_c_8159_n \
 N_noxref_23_c_8035_n N_noxref_23_c_8036_n N_noxref_23_c_8037_n \
 N_noxref_23_c_8040_n N_noxref_23_c_8228_n N_noxref_23_M42_noxref_g \
 N_noxref_23_M45_noxref_g N_noxref_23_M47_noxref_g N_noxref_23_M135_noxref_g \
 N_noxref_23_M136_noxref_g N_noxref_23_M141_noxref_g N_noxref_23_M142_noxref_g \
 N_noxref_23_M145_noxref_g N_noxref_23_M146_noxref_g N_noxref_23_c_8042_n \
 N_noxref_23_c_8044_n N_noxref_23_c_8045_n N_noxref_23_c_8046_n \
 N_noxref_23_c_8047_n N_noxref_23_c_8048_n N_noxref_23_c_8049_n \
 N_noxref_23_c_8051_n N_noxref_23_c_8180_n N_noxref_23_c_8131_n \
 N_noxref_23_c_8052_n N_noxref_23_c_8054_n N_noxref_23_c_8055_n \
 N_noxref_23_c_8056_n N_noxref_23_c_8057_n N_noxref_23_c_8058_n \
 N_noxref_23_c_8272_n N_noxref_23_c_8133_n N_noxref_23_c_8059_n \
 N_noxref_23_c_8061_n N_noxref_23_c_8062_n N_noxref_23_c_8064_n \
 N_noxref_23_c_8321_p N_noxref_23_c_8065_n N_noxref_23_c_8066_n \
 N_noxref_23_c_8067_n N_noxref_23_c_8068_n N_noxref_23_c_8070_n \
 N_noxref_23_c_8071_n N_noxref_23_c_8135_n N_noxref_23_M41_noxref_d \
 N_noxref_23_M131_noxref_d N_noxref_23_M133_noxref_d )  \
 PM_TMRDFFSNQNX1\%noxref_23
x_PM_TMRDFFSNQNX1\%noxref_24 ( N_noxref_24_c_8468_n N_noxref_24_c_8469_n \
 N_noxref_24_c_8383_n N_noxref_24_c_8472_n N_noxref_24_c_8385_n \
 N_noxref_24_c_8386_n N_noxref_24_c_8420_n N_noxref_24_c_8424_n \
 N_noxref_24_c_8426_n N_noxref_24_c_8387_n N_noxref_24_c_8607_n \
 N_noxref_24_c_8388_n N_noxref_24_c_8389_n N_noxref_24_c_8390_n \
 N_noxref_24_c_8392_n N_noxref_24_c_8500_n N_noxref_24_M12_noxref_g \
 N_noxref_24_M48_noxref_g N_noxref_24_M49_noxref_g N_noxref_24_M75_noxref_g \
 N_noxref_24_M76_noxref_g N_noxref_24_M147_noxref_g N_noxref_24_M148_noxref_g \
 N_noxref_24_M149_noxref_g N_noxref_24_M150_noxref_g N_noxref_24_c_8393_n \
 N_noxref_24_c_8395_n N_noxref_24_c_8396_n N_noxref_24_c_8397_n \
 N_noxref_24_c_8398_n N_noxref_24_c_8399_n N_noxref_24_c_8400_n \
 N_noxref_24_c_8402_n N_noxref_24_c_8504_n N_noxref_24_c_8447_n \
 N_noxref_24_c_8712_n N_noxref_24_c_8715_n N_noxref_24_c_8739_p \
 N_noxref_24_c_8671_n N_noxref_24_c_8767_p N_noxref_24_c_8768_p \
 N_noxref_24_c_8449_n N_noxref_24_c_8721_n N_noxref_24_c_8722_n \
 N_noxref_24_c_8723_n N_noxref_24_c_8403_n N_noxref_24_c_8404_n \
 N_noxref_24_c_8406_n N_noxref_24_c_8675_n N_noxref_24_c_8407_n \
 N_noxref_24_c_8408_n N_noxref_24_c_8409_n N_noxref_24_c_8677_n \
 N_noxref_24_c_8450_n N_noxref_24_c_8410_n N_noxref_24_c_8412_n \
 N_noxref_24_c_8413_n N_noxref_24_M11_noxref_d N_noxref_24_M71_noxref_d \
 N_noxref_24_M73_noxref_d )  PM_TMRDFFSNQNX1\%noxref_24
x_PM_TMRDFFSNQNX1\%noxref_25 ( N_noxref_25_c_8833_n N_noxref_25_c_8837_n \
 N_noxref_25_c_8850_n N_noxref_25_c_8839_n N_noxref_25_c_8840_n \
 N_noxref_25_c_8841_n N_noxref_25_c_8854_n N_noxref_25_c_8843_n \
 N_noxref_25_c_8855_n N_noxref_25_M145_noxref_d N_noxref_25_M147_noxref_d \
 N_noxref_25_M149_noxref_s N_noxref_25_M150_noxref_d N_noxref_25_M152_noxref_d \
 )  PM_TMRDFFSNQNX1\%noxref_25
x_PM_TMRDFFSNQNX1\%QN ( N_QN_c_8922_n N_QN_c_8929_n N_QN_c_8930_n \
 N_QN_c_8936_n QN QN QN QN QN QN QN N_QN_c_8984_n N_QN_c_8951_n N_QN_c_8952_n \
 N_QN_c_8938_n N_QN_c_8991_n N_QN_c_8992_n N_QN_M46_noxref_d N_QN_M48_noxref_d \
 N_QN_M50_noxref_d N_QN_M149_noxref_d N_QN_M151_noxref_d )  PM_TMRDFFSNQNX1\%QN
x_PM_TMRDFFSNQNX1\%noxref_27 ( N_noxref_27_c_9109_n N_noxref_27_c_9091_n \
 N_noxref_27_c_9095_n N_noxref_27_c_9098_n N_noxref_27_c_9099_n \
 N_noxref_27_c_9101_n N_noxref_27_M0_noxref_s )  PM_TMRDFFSNQNX1\%noxref_27
x_PM_TMRDFFSNQNX1\%noxref_28 ( N_noxref_28_c_9156_n N_noxref_28_c_9141_n \
 N_noxref_28_c_9145_n N_noxref_28_c_9148_n N_noxref_28_c_9167_n \
 N_noxref_28_M2_noxref_s )  PM_TMRDFFSNQNX1\%noxref_28
x_PM_TMRDFFSNQNX1\%noxref_29 ( N_noxref_29_c_9192_n N_noxref_29_c_9194_n \
 N_noxref_29_c_9197_n N_noxref_29_c_9199_n N_noxref_29_c_9210_n \
 N_noxref_29_M3_noxref_d N_noxref_29_M4_noxref_s )  PM_TMRDFFSNQNX1\%noxref_29
x_PM_TMRDFFSNQNX1\%noxref_30 ( N_noxref_30_c_9259_n N_noxref_30_c_9244_n \
 N_noxref_30_c_9248_n N_noxref_30_c_9251_n N_noxref_30_c_9275_n \
 N_noxref_30_M5_noxref_s )  PM_TMRDFFSNQNX1\%noxref_30
x_PM_TMRDFFSNQNX1\%noxref_31 ( N_noxref_31_c_9297_n N_noxref_31_c_9299_n \
 N_noxref_31_c_9302_n N_noxref_31_c_9304_n N_noxref_31_c_9312_n \
 N_noxref_31_M6_noxref_d N_noxref_31_M7_noxref_s )  PM_TMRDFFSNQNX1\%noxref_31
x_PM_TMRDFFSNQNX1\%noxref_32 ( N_noxref_32_c_9367_n N_noxref_32_c_9349_n \