// File: TMRDFFQNX1.spi.pex
// Created: Tue Oct 15 15:51:34 2024
// Program "Calibre xRC"
// Version "v2023.2_27.15"
// Nominal Temperature: 30C
// Circuit Temperature: 30C
// 
simulator lang=spectre
subckt PM_TMRDFFQNX1\%GND ( 1 123 127 130 135 145 153 161 167 173 181 189 197 \
 205 211 217 225 235 243 251 259 267 273 279 287 295 303 311 317 327 333 339 \
 347 355 363 371 377 383 391 399 407 415 421 427 440 444 446 449 451 453 456 \
 458 460 462 465 467 469 472 475 477 479 482 484 486 489 491 492 493 494 495 \
 496 497 498 499 500 501 502 503 504 505 506 507 508 509 510 511 )
c936 ( 511 0 ) capacitor c=0.0215012f //x=72.03 //y=0.865
c937 ( 510 0 ) capacitor c=0.0215012f //x=68.7 //y=0.865
c938 ( 509 0 ) capacitor c=0.0207058f //x=65.37 //y=0.865
c939 ( 508 0 ) capacitor c=0.0207407f //x=62.04 //y=0.865
c940 ( 507 0 ) capacitor c=0.0207407f //x=58.71 //y=0.865
c941 ( 506 0 ) capacitor c=0.0207407f //x=55.38 //y=0.865
c942 ( 505 0 ) capacitor c=0.0207407f //x=52.05 //y=0.865
c943 ( 504 0 ) capacitor c=0.0207407f //x=48.72 //y=0.865
c944 ( 503 0 ) capacitor c=0.0226075f //x=43.805 //y=0.875
c945 ( 502 0 ) capacitor c=0.0207407f //x=40.58 //y=0.865
c946 ( 501 0 ) capacitor c=0.0207675f //x=37.25 //y=0.865
c947 ( 500 0 ) capacitor c=0.0207675f //x=33.92 //y=0.865
c948 ( 499 0 ) capacitor c=0.0207675f //x=30.59 //y=0.865
c949 ( 498 0 ) capacitor c=0.0207675f //x=27.26 //y=0.865
c950 ( 497 0 ) capacitor c=0.0226344f //x=22.345 //y=0.875
c951 ( 496 0 ) capacitor c=0.0207675f //x=19.12 //y=0.865
c952 ( 495 0 ) capacitor c=0.0207675f //x=15.79 //y=0.865
c953 ( 494 0 ) capacitor c=0.0207675f //x=12.46 //y=0.865
c954 ( 493 0 ) capacitor c=0.0207675f //x=9.13 //y=0.865
c955 ( 492 0 ) capacitor c=0.0208019f //x=5.8 //y=0.865
c956 ( 491 0 ) capacitor c=0.022675f //x=0.885 //y=0.875
c957 ( 490 0 ) capacitor c=0.00440095f //x=72.22 //y=0
c958 ( 489 0 ) capacitor c=0.101477f //x=71.04 //y=0
c959 ( 488 0 ) capacitor c=0.00440095f //x=68.82 //y=0
c960 ( 486 0 ) capacitor c=0.115716f //x=67.71 //y=0
c961 ( 485 0 ) capacitor c=0.00440095f //x=65.56 //y=0
c962 ( 484 0 ) capacitor c=0.10307f //x=64.38 //y=0
c963 ( 483 0 ) capacitor c=0.00440095f //x=62.23 //y=0
c964 ( 482 0 ) capacitor c=0.105373f //x=61.05 //y=0
c965 ( 481 0 ) capacitor c=0.00440095f //x=58.83 //y=0
c966 ( 479 0 ) capacitor c=0.105373f //x=57.72 //y=0
c967 ( 478 0 ) capacitor c=0.00440095f //x=55.57 //y=0
c968 ( 477 0 ) capacitor c=0.105373f //x=54.39 //y=0
c969 ( 476 0 ) capacitor c=0.00440095f //x=52.24 //y=0
c970 ( 475 0 ) capacitor c=0.104903f //x=51.06 //y=0
c971 ( 474 0 ) capacitor c=0.00440095f //x=48.84 //y=0
c972 ( 472 0 ) capacitor c=0.108614f //x=47.73 //y=0
c973 ( 471 0 ) capacitor c=0.00440144f //x=44.03 //y=0
c974 ( 469 0 ) capacitor c=0.104362f //x=42.92 //y=0
c975 ( 468 0 ) capacitor c=0.00440095f //x=40.77 //y=0
c976 ( 467 0 ) capacitor c=0.105632f //x=39.59 //y=0
c977 ( 466 0 ) capacitor c=0.00440095f //x=37.44 //y=0
c978 ( 465 0 ) capacitor c=0.106656f //x=36.26 //y=0
c979 ( 464 0 ) capacitor c=0.00440095f //x=34.04 //y=0
c980 ( 462 0 ) capacitor c=0.106969f //x=32.93 //y=0
c981 ( 461 0 ) capacitor c=0.00440095f //x=30.78 //y=0
c982 ( 460 0 ) capacitor c=0.106848f //x=29.6 //y=0
c983 ( 459 0 ) capacitor c=0.00440095f //x=27.45 //y=0
c984 ( 458 0 ) capacitor c=0.109784f //x=26.27 //y=0
c985 ( 457 0 ) capacitor c=0.00440144f //x=22.535 //y=0
c986 ( 456 0 ) capacitor c=0.10575f //x=21.46 //y=0
c987 ( 455 0 ) capacitor c=0.00440095f //x=19.24 //y=0
c988 ( 453 0 ) capacitor c=0.106969f //x=18.13 //y=0
c989 ( 452 0 ) capacitor c=0.00440095f //x=15.98 //y=0
c990 ( 451 0 ) capacitor c=0.106969f //x=14.8 //y=0
c991 ( 450 0 ) capacitor c=0.00440095f //x=12.65 //y=0
c992 ( 449 0 ) capacitor c=0.106969f //x=11.47 //y=0
c993 ( 448 0 ) capacitor c=0.00440095f //x=9.25 //y=0
c994 ( 446 0 ) capacitor c=0.106848f //x=8.14 //y=0
c995 ( 445 0 ) capacitor c=0.00440095f //x=5.99 //y=0
c996 ( 444 0 ) capacitor c=0.109537f //x=4.81 //y=0
c997 ( 443 0 ) capacitor c=0.00440144f //x=1.075 //y=0
c998 ( 440 0 ) capacitor c=0.258637f //x=73.63 //y=0
c999 ( 427 0 ) capacitor c=0.0389876f //x=72.135 //y=0
c1000 ( 421 0 ) capacitor c=0.0716428f //x=70.87 //y=0
c1001 ( 415 0 ) capacitor c=0.0388276f //x=68.805 //y=0
c1002 ( 407 0 ) capacitor c=0.0717268f //x=67.54 //y=0
c1003 ( 399 0 ) capacitor c=0.039094f //x=65.475 //y=0
c1004 ( 391 0 ) capacitor c=0.0718026f //x=64.21 //y=0
c1005 ( 383 0 ) capacitor c=0.0388888f //x=62.145 //y=0
c1006 ( 377 0 ) capacitor c=0.0718026f //x=60.88 //y=0
c1007 ( 371 0 ) capacitor c=0.0388888f //x=58.815 //y=0
c1008 ( 363 0 ) capacitor c=0.0718026f //x=57.55 //y=0
c1009 ( 355 0 ) capacitor c=0.0388888f //x=55.485 //y=0
c1010 ( 347 0 ) capacitor c=0.0718026f //x=54.22 //y=0
c1011 ( 339 0 ) capacitor c=0.0388888f //x=52.155 //y=0
c1012 ( 333 0 ) capacitor c=0.0718026f //x=50.89 //y=0
c1013 ( 327 0 ) capacitor c=0.0388888f //x=48.825 //y=0
c1014 ( 317 0 ) capacitor c=0.133362f //x=47.56 //y=0
c1015 ( 311 0 ) capacitor c=0.0339325f //x=43.91 //y=0
c1016 ( 303 0 ) capacitor c=0.0718011f //x=42.75 //y=0
c1017 ( 295 0 ) capacitor c=0.0388888f //x=40.685 //y=0
c1018 ( 287 0 ) capacitor c=0.0718137f //x=39.42 //y=0
c1019 ( 279 0 ) capacitor c=0.0389039f //x=37.355 //y=0
c1020 ( 273 0 ) capacitor c=0.0718422f //x=36.09 //y=0
c1021 ( 267 0 ) capacitor c=0.0389039f //x=34.025 //y=0
c1022 ( 259 0 ) capacitor c=0.0718422f //x=32.76 //y=0
c1023 ( 251 0 ) capacitor c=0.0389039f //x=30.695 //y=0
c1024 ( 243 0 ) capacitor c=0.0718417f //x=29.43 //y=0
c1025 ( 235 0 ) capacitor c=0.0389039f //x=27.365 //y=0
c1026 ( 225 0 ) capacitor c=0.133515f //x=26.1 //y=0
c1027 ( 217 0 ) capacitor c=0.0339482f //x=22.45 //y=0
c1028 ( 211 0 ) capacitor c=0.0718422f //x=21.29 //y=0
c1029 ( 205 0 ) capacitor c=0.0389039f //x=19.225 //y=0
c1030 ( 197 0 ) capacitor c=0.0718422f //x=17.96 //y=0
c1031 ( 189 0 ) capacitor c=0.0389039f //x=15.895 //y=0
c1032 ( 181 0 ) capacitor c=0.0718422f //x=14.63 //y=0
c1033 ( 173 0 ) capacitor c=0.0389039f //x=12.565 //y=0
c1034 ( 167 0 ) capacitor c=0.0718422f //x=11.3 //y=0
c1035 ( 161 0 ) capacitor c=0.0389039f //x=9.235 //y=0
c1036 ( 153 0 ) capacitor c=0.0718609f //x=7.97 //y=0
c1037 ( 145 0 ) capacitor c=0.0389288f //x=5.905 //y=0
c1038 ( 135 0 ) capacitor c=0.131745f //x=4.64 //y=0
c1039 ( 130 0 ) capacitor c=0.178285f //x=0.74 //y=0
c1040 ( 127 0 ) capacitor c=0.0367385f //x=0.99 //y=0
c1041 ( 123 0 ) capacitor c=2.29191f //x=73.63 //y=0
r1042 (  438 440 ) resistor r=39.7983 //w=0.357 //l=1.11 //layer=li \
 //thickness=0.1 //x=72.52 //y=0 //x2=73.63 //y2=0
r1043 (  436 490 ) resistor r=2.94794 //w=0.34 //l=0.085 //layer=li \
 //thickness=0.1 //x=72.305 //y=0 //x2=72.22 //y2=0
r1044 (  436 438 ) resistor r=7.70868 //w=0.357 //l=0.215 //layer=li \
 //thickness=0.1 //x=72.305 //y=0 //x2=72.52 //y2=0
r1045 (  431 490 ) resistor r=4.11603 //w=0.68 //l=0.17 //layer=li \
 //thickness=0.1 //x=72.22 //y=0.17 //x2=72.22 //y2=0
r1046 (  431 511 ) resistor r=53.7326 //w=0.187 //l=0.785 //layer=li \
 //thickness=0.1 //x=72.22 //y=0.17 //x2=72.22 //y2=0.955
r1047 (  428 489 ) resistor r=5.4201 //w=0.34 //l=0.17 //layer=li \
 //thickness=0.1 //x=71.21 //y=0 //x2=71.04 //y2=0
r1048 (  428 430 ) resistor r=7.17087 //w=0.357 //l=0.2 //layer=li \
 //thickness=0.1 //x=71.21 //y=0 //x2=71.41 //y2=0
r1049 (  427 490 ) resistor r=2.94794 //w=0.34 //l=0.085 //layer=li \
 //thickness=0.1 //x=72.135 //y=0 //x2=72.22 //y2=0
r1050 (  427 430 ) resistor r=25.9944 //w=0.357 //l=0.725 //layer=li \
 //thickness=0.1 //x=72.135 //y=0 //x2=71.41 //y2=0
r1051 (  422 488 ) resistor r=2.94794 //w=0.34 //l=0.085 //layer=li \
 //thickness=0.1 //x=68.975 //y=0 //x2=68.89 //y2=0
r1052 (  422 424 ) resistor r=34.2409 //w=0.357 //l=0.955 //layer=li \
 //thickness=0.1 //x=68.975 //y=0 //x2=69.93 //y2=0
r1053 (  421 489 ) resistor r=5.4201 //w=0.34 //l=0.17 //layer=li \
 //thickness=0.1 //x=70.87 //y=0 //x2=71.04 //y2=0
r1054 (  421 424 ) resistor r=33.7031 //w=0.357 //l=0.94 //layer=li \
 //thickness=0.1 //x=70.87 //y=0 //x2=69.93 //y2=0
r1055 (  417 488 ) resistor r=4.11603 //w=0.68 //l=0.17 //layer=li \
 //thickness=0.1 //x=68.89 //y=0.17 //x2=68.89 //y2=0
r1056 (  417 510 ) resistor r=53.7326 //w=0.187 //l=0.785 //layer=li \
 //thickness=0.1 //x=68.89 //y=0.17 //x2=68.89 //y2=0.955
r1057 (  416 486 ) resistor r=5.4201 //w=0.34 //l=0.17 //layer=li \
 //thickness=0.1 //x=67.88 //y=0 //x2=67.71 //y2=0
r1058 (  415 488 ) resistor r=2.94794 //w=0.34 //l=0.085 //layer=li \
 //thickness=0.1 //x=68.805 //y=0 //x2=68.89 //y2=0
r1059 (  415 416 ) resistor r=33.1653 //w=0.357 //l=0.925 //layer=li \
 //thickness=0.1 //x=68.805 //y=0 //x2=67.88 //y2=0
r1060 (  410 412 ) resistor r=39.7983 //w=0.357 //l=1.11 //layer=li \
 //thickness=0.1 //x=66.23 //y=0 //x2=67.34 //y2=0
r1061 (  408 485 ) resistor r=2.94794 //w=0.34 //l=0.085 //layer=li \
 //thickness=0.1 //x=65.645 //y=0 //x2=65.56 //y2=0
r1062 (  408 410 ) resistor r=20.9748 //w=0.357 //l=0.585 //layer=li \
 //thickness=0.1 //x=65.645 //y=0 //x2=66.23 //y2=0
r1063 (  407 486 ) resistor r=5.4201 //w=0.34 //l=0.17 //layer=li \
 //thickness=0.1 //x=67.54 //y=0 //x2=67.71 //y2=0
r1064 (  407 412 ) resistor r=7.17087 //w=0.357 //l=0.2 //layer=li \
 //thickness=0.1 //x=67.54 //y=0 //x2=67.34 //y2=0
r1065 (  403 485 ) resistor r=4.11603 //w=0.68 //l=0.17 //layer=li \
 //thickness=0.1 //x=65.56 //y=0.17 //x2=65.56 //y2=0
r1066 (  403 509 ) resistor r=53.7326 //w=0.187 //l=0.785 //layer=li \
 //thickness=0.1 //x=65.56 //y=0.17 //x2=65.56 //y2=0.955
r1067 (  400 484 ) resistor r=5.4201 //w=0.34 //l=0.17 //layer=li \
 //thickness=0.1 //x=64.55 //y=0 //x2=64.38 //y2=0
r1068 (  400 402 ) resistor r=20.437 //w=0.357 //l=0.57 //layer=li \
 //thickness=0.1 //x=64.55 //y=0 //x2=65.12 //y2=0
r1069 (  399 485 ) resistor r=2.94794 //w=0.34 //l=0.085 //layer=li \
 //thickness=0.1 //x=65.475 //y=0 //x2=65.56 //y2=0
r1070 (  399 402 ) resistor r=12.7283 //w=0.357 //l=0.355 //layer=li \
 //thickness=0.1 //x=65.475 //y=0 //x2=65.12 //y2=0
r1071 (  394 396 ) resistor r=39.7983 //w=0.357 //l=1.11 //layer=li \
 //thickness=0.1 //x=62.53 //y=0 //x2=63.64 //y2=0
r1072 (  392 483 ) resistor r=2.94794 //w=0.34 //l=0.085 //layer=li \
 //thickness=0.1 //x=62.315 //y=0 //x2=62.23 //y2=0
r1073 (  392 394 ) resistor r=7.70868 //w=0.357 //l=0.215 //layer=li \
 //thickness=0.1 //x=62.315 //y=0 //x2=62.53 //y2=0
r1074 (  391 484 ) resistor r=5.4201 //w=0.34 //l=0.17 //layer=li \
 //thickness=0.1 //x=64.21 //y=0 //x2=64.38 //y2=0
r1075 (  391 396 ) resistor r=20.437 //w=0.357 //l=0.57 //layer=li \
 //thickness=0.1 //x=64.21 //y=0 //x2=63.64 //y2=0
r1076 (  387 483 ) resistor r=4.11603 //w=0.68 //l=0.17 //layer=li \
 //thickness=0.1 //x=62.23 //y=0.17 //x2=62.23 //y2=0
r1077 (  387 508 ) resistor r=53.7326 //w=0.187 //l=0.785 //layer=li \
 //thickness=0.1 //x=62.23 //y=0.17 //x2=62.23 //y2=0.955
r1078 (  384 482 ) resistor r=5.4201 //w=0.34 //l=0.17 //layer=li \
 //thickness=0.1 //x=61.22 //y=0 //x2=61.05 //y2=0
r1079 (  384 386 ) resistor r=7.17087 //w=0.357 //l=0.2 //layer=li \
 //thickness=0.1 //x=61.22 //y=0 //x2=61.42 //y2=0
r1080 (  383 483 ) resistor r=2.94794 //w=0.34 //l=0.085 //layer=li \
 //thickness=0.1 //x=62.145 //y=0 //x2=62.23 //y2=0
r1081 (  383 386 ) resistor r=25.9944 //w=0.357 //l=0.725 //layer=li \
 //thickness=0.1 //x=62.145 //y=0 //x2=61.42 //y2=0
r1082 (  378 481 ) resistor r=2.94794 //w=0.34 //l=0.085 //layer=li \
 //thickness=0.1 //x=58.985 //y=0 //x2=58.9 //y2=0
r1083 (  378 380 ) resistor r=34.2409 //w=0.357 //l=0.955 //layer=li \
 //thickness=0.1 //x=58.985 //y=0 //x2=59.94 //y2=0
r1084 (  377 482 ) resistor r=5.4201 //w=0.34 //l=0.17 //layer=li \
 //thickness=0.1 //x=60.88 //y=0 //x2=61.05 //y2=0
r1085 (  377 380 ) resistor r=33.7031 //w=0.357 //l=0.94 //layer=li \
 //thickness=0.1 //x=60.88 //y=0 //x2=59.94 //y2=0
r1086 (  373 481 ) resistor r=4.11603 //w=0.68 //l=0.17 //layer=li \
 //thickness=0.1 //x=58.9 //y=0.17 //x2=58.9 //y2=0
r1087 (  373 507 ) resistor r=53.7326 //w=0.187 //l=0.785 //layer=li \
 //thickness=0.1 //x=58.9 //y=0.17 //x2=58.9 //y2=0.955
r1088 (  372 479 ) resistor r=5.4201 //w=0.34 //l=0.17 //layer=li \
 //thickness=0.1 //x=57.89 //y=0 //x2=57.72 //y2=0
r1089 (  371 481 ) resistor r=2.94794 //w=0.34 //l=0.085 //layer=li \
 //thickness=0.1 //x=58.815 //y=0 //x2=58.9 //y2=0
r1090 (  371 372 ) resistor r=33.1653 //w=0.357 //l=0.925 //layer=li \
 //thickness=0.1 //x=58.815 //y=0 //x2=57.89 //y2=0
r1091 (  366 368 ) resistor r=39.7983 //w=0.357 //l=1.11 //layer=li \
 //thickness=0.1 //x=56.24 //y=0 //x2=57.35 //y2=0
r1092 (  364 478 ) resistor r=2.94794 //w=0.34 //l=0.085 //layer=li \
 //thickness=0.1 //x=55.655 //y=0 //x2=55.57 //y2=0
r1093 (  364 366 ) resistor r=20.9748 //w=0.357 //l=0.585 //layer=li \
 //thickness=0.1 //x=55.655 //y=0 //x2=56.24 //y2=0
r1094 (  363 479 ) resistor r=5.4201 //w=0.34 //l=0.17 //layer=li \
 //thickness=0.1 //x=57.55 //y=0 //x2=57.72 //y2=0
r1095 (  363 368 ) resistor r=7.17087 //w=0.357 //l=0.2 //layer=li \
 //thickness=0.1 //x=57.55 //y=0 //x2=57.35 //y2=0
r1096 (  359 478 ) resistor r=4.11603 //w=0.68 //l=0.17 //layer=li \
 //thickness=0.1 //x=55.57 //y=0.17 //x2=55.57 //y2=0
r1097 (  359 506 ) resistor r=53.7326 //w=0.187 //l=0.785 //layer=li \
 //thickness=0.1 //x=55.57 //y=0.17 //x2=55.57 //y2=0.955
r1098 (  356 477 ) resistor r=5.4201 //w=0.34 //l=0.17 //layer=li \
 //thickness=0.1 //x=54.56 //y=0 //x2=54.39 //y2=0
r1099 (  356 358 ) resistor r=20.437 //w=0.357 //l=0.57 //layer=li \
 //thickness=0.1 //x=54.56 //y=0 //x2=55.13 //y2=0
r1100 (  355 478 ) resistor r=2.94794 //w=0.34 //l=0.085 //layer=li \
 //thickness=0.1 //x=55.485 //y=0 //x2=55.57 //y2=0
r1101 (  355 358 ) resistor r=12.7283 //w=0.357 //l=0.355 //layer=li \
 //thickness=0.1 //x=55.485 //y=0 //x2=55.13 //y2=0
r1102 (  350 352 ) resistor r=39.7983 //w=0.357 //l=1.11 //layer=li \
 //thickness=0.1 //x=52.54 //y=0 //x2=53.65 //y2=0
r1103 (  348 476 ) resistor r=2.94794 //w=0.34 //l=0.085 //layer=li \
 //thickness=0.1 //x=52.325 //y=0 //x2=52.24 //y2=0
r1104 (  348 350 ) resistor r=7.70868 //w=0.357 //l=0.215 //layer=li \
 //thickness=0.1 //x=52.325 //y=0 //x2=52.54 //y2=0
r1105 (  347 477 ) resistor r=5.4201 //w=0.34 //l=0.17 //layer=li \
 //thickness=0.1 //x=54.22 //y=0 //x2=54.39 //y2=0
r1106 (  347 352 ) resistor r=20.437 //w=0.357 //l=0.57 //layer=li \
 //thickness=0.1 //x=54.22 //y=0 //x2=53.65 //y2=0
r1107 (  343 476 ) resistor r=4.11603 //w=0.68 //l=0.17 //layer=li \
 //thickness=0.1 //x=52.24 //y=0.17 //x2=52.24 //y2=0
r1108 (  343 505 ) resistor r=53.7326 //w=0.187 //l=0.785 //layer=li \
 //thickness=0.1 //x=52.24 //y=0.17 //x2=52.24 //y2=0.955
r1109 (  340 475 ) resistor r=5.4201 //w=0.34 //l=0.17 //layer=li \
 //thickness=0.1 //x=51.23 //y=0 //x2=51.06 //y2=0
r1110 (  340 342 ) resistor r=7.17087 //w=0.357 //l=0.2 //layer=li \
 //thickness=0.1 //x=51.23 //y=0 //x2=51.43 //y2=0
r1111 (  339 476 ) resistor r=2.94794 //w=0.34 //l=0.085 //layer=li \
 //thickness=0.1 //x=52.155 //y=0 //x2=52.24 //y2=0
r1112 (  339 342 ) resistor r=25.9944 //w=0.357 //l=0.725 //layer=li \
 //thickness=0.1 //x=52.155 //y=0 //x2=51.43 //y2=0
r1113 (  334 474 ) resistor r=2.94794 //w=0.34 //l=0.085 //layer=li \
 //thickness=0.1 //x=48.995 //y=0 //x2=48.91 //y2=0
r1114 (  334 336 ) resistor r=34.2409 //w=0.357 //l=0.955 //layer=li \
 //thickness=0.1 //x=48.995 //y=0 //x2=49.95 //y2=0
r1115 (  333 475 ) resistor r=5.4201 //w=0.34 //l=0.17 //layer=li \
 //thickness=0.1 //x=50.89 //y=0 //x2=51.06 //y2=0
r1116 (  333 336 ) resistor r=33.7031 //w=0.357 //l=0.94 //layer=li \
 //thickness=0.1 //x=50.89 //y=0 //x2=49.95 //y2=0
r1117 (  329 474 ) resistor r=4.11603 //w=0.68 //l=0.17 //layer=li \
 //thickness=0.1 //x=48.91 //y=0.17 //x2=48.91 //y2=0
r1118 (  329 504 ) resistor r=53.7326 //w=0.187 //l=0.785 //layer=li \
 //thickness=0.1 //x=48.91 //y=0.17 //x2=48.91 //y2=0.955
r1119 (  328 472 ) resistor r=5.4201 //w=0.34 //l=0.17 //layer=li \
 //thickness=0.1 //x=47.9 //y=0 //x2=47.73 //y2=0
r1120 (  327 474 ) resistor r=2.94794 //w=0.34 //l=0.085 //layer=li \
 //thickness=0.1 //x=48.825 //y=0 //x2=48.91 //y2=0
r1121 (  327 328 ) resistor r=33.1653 //w=0.357 //l=0.925 //layer=li \
 //thickness=0.1 //x=48.825 //y=0 //x2=47.9 //y2=0
r1122 (  322 324 ) resistor r=39.7983 //w=0.357 //l=1.11 //layer=li \
 //thickness=0.1 //x=46.25 //y=0 //x2=47.36 //y2=0
r1123 (  320 322 ) resistor r=39.7983 //w=0.357 //l=1.11 //layer=li \
 //thickness=0.1 //x=45.14 //y=0 //x2=46.25 //y2=0
r1124 (  318 471 ) resistor r=2.94794 //w=0.34 //l=0.085 //layer=li \
 //thickness=0.1 //x=44.08 //y=0 //x2=43.995 //y2=0
r1125 (  318 320 ) resistor r=38.0056 //w=0.357 //l=1.06 //layer=li \
 //thickness=0.1 //x=44.08 //y=0 //x2=45.14 //y2=0
r1126 (  317 472 ) resistor r=5.4201 //w=0.34 //l=0.17 //layer=li \
 //thickness=0.1 //x=47.56 //y=0 //x2=47.73 //y2=0
r1127 (  317 324 ) resistor r=7.17087 //w=0.357 //l=0.2 //layer=li \
 //thickness=0.1 //x=47.56 //y=0 //x2=47.36 //y2=0
r1128 (  313 471 ) resistor r=4.11603 //w=0.68 //l=0.17 //layer=li \
 //thickness=0.1 //x=43.995 //y=0.17 //x2=43.995 //y2=0
r1129 (  313 503 ) resistor r=54.4171 //w=0.187 //l=0.795 //layer=li \
 //thickness=0.1 //x=43.995 //y=0.17 //x2=43.995 //y2=0.965
r1130 (  312 469 ) resistor r=5.4201 //w=0.34 //l=0.17 //layer=li \
 //thickness=0.1 //x=43.09 //y=0 //x2=42.92 //y2=0
r1131 (  311 471 ) resistor r=2.94794 //w=0.34 //l=0.085 //layer=li \
 //thickness=0.1 //x=43.91 //y=0 //x2=43.995 //y2=0
r1132 (  311 312 ) resistor r=29.4006 //w=0.357 //l=0.82 //layer=li \
 //thickness=0.1 //x=43.91 //y=0 //x2=43.09 //y2=0
r1133 (  306 308 ) resistor r=39.7983 //w=0.357 //l=1.11 //layer=li \
 //thickness=0.1 //x=41.44 //y=0 //x2=42.55 //y2=0
r1134 (  304 468 ) resistor r=2.94794 //w=0.34 //l=0.085 //layer=li \
 //thickness=0.1 //x=40.855 //y=0 //x2=40.77 //y2=0
r1135 (  304 306 ) resistor r=20.9748 //w=0.357 //l=0.585 //layer=li \
 //thickness=0.1 //x=40.855 //y=0 //x2=41.44 //y2=0
r1136 (  303 469 ) resistor r=5.4201 //w=0.34 //l=0.17 //layer=li \
 //thickness=0.1 //x=42.75 //y=0 //x2=42.92 //y2=0
r1137 (  303 308 ) resistor r=7.17087 //w=0.357 //l=0.2 //layer=li \
 //thickness=0.1 //x=42.75 //y=0 //x2=42.55 //y2=0
r1138 (  299 468 ) resistor r=4.11603 //w=0.68 //l=0.17 //layer=li \
 //thickness=0.1 //x=40.77 //y=0.17 //x2=40.77 //y2=0
r1139 (  299 502 ) resistor r=53.7326 //w=0.187 //l=0.785 //layer=li \
 //thickness=0.1 //x=40.77 //y=0.17 //x2=40.77 //y2=0.955
r1140 (  296 467 ) resistor r=5.4201 //w=0.34 //l=0.17 //layer=li \
 //thickness=0.1 //x=39.76 //y=0 //x2=39.59 //y2=0
r1141 (  296 298 ) resistor r=20.437 //w=0.357 //l=0.57 //layer=li \
 //thickness=0.1 //x=39.76 //y=0 //x2=40.33 //y2=0
r1142 (  295 468 ) resistor r=2.94794 //w=0.34 //l=0.085 //layer=li \
 //thickness=0.1 //x=40.685 //y=0 //x2=40.77 //y2=0
r1143 (  295 298 ) resistor r=12.7283 //w=0.357 //l=0.355 //layer=li \
 //thickness=0.1 //x=40.685 //y=0 //x2=40.33 //y2=0
r1144 (  290 292 ) resistor r=39.7983 //w=0.357 //l=1.11 //layer=li \
 //thickness=0.1 //x=37.74 //y=0 //x2=38.85 //y2=0
r1145 (  288 466 ) resistor r=2.94794 //w=0.34 //l=0.085 //layer=li \
 //thickness=0.1 //x=37.525 //y=0 //x2=37.44 //y2=0
r1146 (  288 290 ) resistor r=7.70868 //w=0.357 //l=0.215 //layer=li \
 //thickness=0.1 //x=37.525 //y=0 //x2=37.74 //y2=0
r1147 (  287 467 ) resistor r=5.4201 //w=0.34 //l=0.17 //layer=li \
 //thickness=0.1 //x=39.42 //y=0 //x2=39.59 //y2=0
r1148 (  287 292 ) resistor r=20.437 //w=0.357 //l=0.57 //layer=li \
 //thickness=0.1 //x=39.42 //y=0 //x2=38.85 //y2=0
r1149 (  283 466 ) resistor r=4.11603 //w=0.68 //l=0.17 //layer=li \
 //thickness=0.1 //x=37.44 //y=0.17 //x2=37.44 //y2=0
r1150 (  283 501 ) resistor r=53.7326 //w=0.187 //l=0.785 //layer=li \
 //thickness=0.1 //x=37.44 //y=0.17 //x2=37.44 //y2=0.955
r1151 (  280 465 ) resistor r=5.4201 //w=0.34 //l=0.17 //layer=li \
 //thickness=0.1 //x=36.43 //y=0 //x2=36.26 //y2=0
r1152 (  280 282 ) resistor r=7.17087 //w=0.357 //l=0.2 //layer=li \
 //thickness=0.1 //x=36.43 //y=0 //x2=36.63 //y2=0
r1153 (  279 466 ) resistor r=2.94794 //w=0.34 //l=0.085 //layer=li \
 //thickness=0.1 //x=37.355 //y=0 //x2=37.44 //y2=0
r1154 (  279 282 ) resistor r=25.9944 //w=0.357 //l=0.725 //layer=li \
 //thickness=0.1 //x=37.355 //y=0 //x2=36.63 //y2=0
r1155 (  274 464 ) resistor r=2.94794 //w=0.34 //l=0.085 //layer=li \
 //thickness=0.1 //x=34.195 //y=0 //x2=34.11 //y2=0
r1156 (  274 276 ) resistor r=34.2409 //w=0.357 //l=0.955 //layer=li \
 //thickness=0.1 //x=34.195 //y=0 //x2=35.15 //y2=0
r1157 (  273 465 ) resistor r=5.4201 //w=0.34 //l=0.17 //layer=li \
 //thickness=0.1 //x=36.09 //y=0 //x2=36.26 //y2=0
r1158 (  273 276 ) resistor r=33.7031 //w=0.357 //l=0.94 //layer=li \
 //thickness=0.1 //x=36.09 //y=0 //x2=35.15 //y2=0
r1159 (  269 464 ) resistor r=4.11603 //w=0.68 //l=0.17 //layer=li \
 //thickness=0.1 //x=34.11 //y=0.17 //x2=34.11 //y2=0
r1160 (  269 500 ) resistor r=53.7326 //w=0.187 //l=0.785 //layer=li \
 //thickness=0.1 //x=34.11 //y=0.17 //x2=34.11 //y2=0.955
r1161 (  268 462 ) resistor r=5.4201 //w=0.34 //l=0.17 //layer=li \
 //thickness=0.1 //x=33.1 //y=0 //x2=32.93 //y2=0
r1162 (  267 464 ) resistor r=2.94794 //w=0.34 //l=0.085 //layer=li \
 //thickness=0.1 //x=34.025 //y=0 //x2=34.11 //y2=0
r1163 (  267 268 ) resistor r=33.1653 //w=0.357 //l=0.925 //layer=li \
 //thickness=0.1 //x=34.025 //y=0 //x2=33.1 //y2=0
r1164 (  262 264 ) resistor r=39.7983 //w=0.357 //l=1.11 //layer=li \
 //thickness=0.1 //x=31.45 //y=0 //x2=32.56 //y2=0
r1165 (  260 461 ) resistor r=2.94794 //w=0.34 //l=0.085 //layer=li \
 //thickness=0.1 //x=30.865 //y=0 //x2=30.78 //y2=0
r1166 (  260 262 ) resistor r=20.9748 //w=0.357 //l=0.585 //layer=li \
 //thickness=0.1 //x=30.865 //y=0 //x2=31.45 //y2=0
r1167 (  259 462 ) resistor r=5.4201 //w=0.34 //l=0.17 //layer=li \
 //thickness=0.1 //x=32.76 //y=0 //x2=32.93 //y2=0
r1168 (  259 264 ) resistor r=7.17087 //w=0.357 //l=0.2 //layer=li \
 //thickness=0.1 //x=32.76 //y=0 //x2=32.56 //y2=0
r1169 (  255 461 ) resistor r=4.11603 //w=0.68 //l=0.17 //layer=li \
 //thickness=0.1 //x=30.78 //y=0.17 //x2=30.78 //y2=0
r1170 (  255 499 ) resistor r=53.7326 //w=0.187 //l=0.785 //layer=li \
 //thickness=0.1 //x=30.78 //y=0.17 //x2=30.78 //y2=0.955
r1171 (  252 460 ) resistor r=5.4201 //w=0.34 //l=0.17 //layer=li \
 //thickness=0.1 //x=29.77 //y=0 //x2=29.6 //y2=0
r1172 (  252 254 ) resistor r=20.437 //w=0.357 //l=0.57 //layer=li \
 //thickness=0.1 //x=29.77 //y=0 //x2=30.34 //y2=0
r1173 (  251 461 ) resistor r=2.94794 //w=0.34 //l=0.085 //layer=li \
 //thickness=0.1 //x=30.695 //y=0 //x2=30.78 //y2=0
r1174 (  251 254 ) resistor r=12.7283 //w=0.357 //l=0.355 //layer=li \
 //thickness=0.1 //x=30.695 //y=0 //x2=30.34 //y2=0
r1175 (  246 248 ) resistor r=39.7983 //w=0.357 //l=1.11 //layer=li \
 //thickness=0.1 //x=27.75 //y=0 //x2=28.86 //y2=0
r1176 (  244 459 ) resistor r=2.94794 //w=0.34 //l=0.085 //layer=li \
 //thickness=0.1 //x=27.535 //y=0 //x2=27.45 //y2=0
r1177 (  244 246 ) resistor r=7.70868 //w=0.357 //l=0.215 //layer=li \
 //thickness=0.1 //x=27.535 //y=0 //x2=27.75 //y2=0
r1178 (  243 460 ) resistor r=5.4201 //w=0.34 //l=0.17 //layer=li \
 //thickness=0.1 //x=29.43 //y=0 //x2=29.6 //y2=0
r1179 (  243 248 ) resistor r=20.437 //w=0.357 //l=0.57 //layer=li \
 //thickness=0.1 //x=29.43 //y=0 //x2=28.86 //y2=0
r1180 (  239 459 ) resistor r=4.11603 //w=0.68 //l=0.17 //layer=li \
 //thickness=0.1 //x=27.45 //y=0.17 //x2=27.45 //y2=0
r1181 (  239 498 ) resistor r=53.7326 //w=0.187 //l=0.785 //layer=li \
 //thickness=0.1 //x=27.45 //y=0.17 //x2=27.45 //y2=0.955
r1182 (  236 458 ) resistor r=5.4201 //w=0.34 //l=0.17 //layer=li \
 //thickness=0.1 //x=26.44 //y=0 //x2=26.27 //y2=0
r1183 (  236 238 ) resistor r=7.17087 //w=0.357 //l=0.2 //layer=li \
 //thickness=0.1 //x=26.44 //y=0 //x2=26.64 //y2=0
r1184 (  235 459 ) resistor r=2.94794 //w=0.34 //l=0.085 //layer=li \
 //thickness=0.1 //x=27.365 //y=0 //x2=27.45 //y2=0
r1185 (  235 238 ) resistor r=25.9944 //w=0.357 //l=0.725 //layer=li \
 //thickness=0.1 //x=27.365 //y=0 //x2=26.64 //y2=0
r1186 (  230 232 ) resistor r=39.7983 //w=0.357 //l=1.11 //layer=li \
 //thickness=0.1 //x=24.05 //y=0 //x2=25.16 //y2=0
r1187 (  228 230 ) resistor r=39.7983 //w=0.357 //l=1.11 //layer=li \
 //thickness=0.1 //x=22.94 //y=0 //x2=24.05 //y2=0
r1188 (  226 457 ) resistor r=2.94794 //w=0.34 //l=0.085 //layer=li \
 //thickness=0.1 //x=22.62 //y=0 //x2=22.535 //y2=0
r1189 (  226 228 ) resistor r=11.4734 //w=0.357 //l=0.32 //layer=li \
 //thickness=0.1 //x=22.62 //y=0 //x2=22.94 //y2=0
r1190 (  225 458 ) resistor r=5.4201 //w=0.34 //l=0.17 //layer=li \
 //thickness=0.1 //x=26.1 //y=0 //x2=26.27 //y2=0
r1191 (  225 232 ) resistor r=33.7031 //w=0.357 //l=0.94 //layer=li \
 //thickness=0.1 //x=26.1 //y=0 //x2=25.16 //y2=0
r1192 (  221 457 ) resistor r=4.11603 //w=0.68 //l=0.17 //layer=li \
 //thickness=0.1 //x=22.535 //y=0.17 //x2=22.535 //y2=0
r1193 (  221 497 ) resistor r=54.4171 //w=0.187 //l=0.795 //layer=li \
 //thickness=0.1 //x=22.535 //y=0.17 //x2=22.535 //y2=0.965
r1194 (  218 456 ) resistor r=5.4201 //w=0.34 //l=0.17 //layer=li \
 //thickness=0.1 //x=21.63 //y=0 //x2=21.46 //y2=0
r1195 (  218 220 ) resistor r=7.17087 //w=0.357 //l=0.2 //layer=li \
 //thickness=0.1 //x=21.63 //y=0 //x2=21.83 //y2=0
r1196 (  217 457 ) resistor r=2.94794 //w=0.34 //l=0.085 //layer=li \
 //thickness=0.1 //x=22.45 //y=0 //x2=22.535 //y2=0
r1197 (  217 220 ) resistor r=22.2297 //w=0.357 //l=0.62 //layer=li \
 //thickness=0.1 //x=22.45 //y=0 //x2=21.83 //y2=0
r1198 (  212 455 ) resistor r=2.94794 //w=0.34 //l=0.085 //layer=li \
 //thickness=0.1 //x=19.395 //y=0 //x2=19.31 //y2=0
r1199 (  212 214 ) resistor r=34.2409 //w=0.357 //l=0.955 //layer=li \
 //thickness=0.1 //x=19.395 //y=0 //x2=20.35 //y2=0
r1200 (  211 456 ) resistor r=5.4201 //w=0.34 //l=0.17 //layer=li \
 //thickness=0.1 //x=21.29 //y=0 //x2=21.46 //y2=0
r1201 (  211 214 ) resistor r=33.7031 //w=0.357 //l=0.94 //layer=li \
 //thickness=0.1 //x=21.29 //y=0 //x2=20.35 //y2=0
r1202 (  207 455 ) resistor r=4.11603 //w=0.68 //l=0.17 //layer=li \
 //thickness=0.1 //x=19.31 //y=0.17 //x2=19.31 //y2=0
r1203 (  207 496 ) resistor r=53.7326 //w=0.187 //l=0.785 //layer=li \
 //thickness=0.1 //x=19.31 //y=0.17 //x2=19.31 //y2=0.955
r1204 (  206 453 ) resistor r=5.4201 //w=0.34 //l=0.17 //layer=li \
 //thickness=0.1 //x=18.3 //y=0 //x2=18.13 //y2=0
r1205 (  205 455 ) resistor r=2.94794 //w=0.34 //l=0.085 //layer=li \
 //thickness=0.1 //x=19.225 //y=0 //x2=19.31 //y2=0
r1206 (  205 206 ) resistor r=33.1653 //w=0.357 //l=0.925 //layer=li \
 //thickness=0.1 //x=19.225 //y=0 //x2=18.3 //y2=0
r1207 (  200 202 ) resistor r=39.7983 //w=0.357 //l=1.11 //layer=li \
 //thickness=0.1 //x=16.65 //y=0 //x2=17.76 //y2=0
r1208 (  198 452 ) resistor r=2.94794 //w=0.34 //l=0.085 //layer=li \
 //thickness=0.1 //x=16.065 //y=0 //x2=15.98 //y2=0
r1209 (  198 200 ) resistor r=20.9748 //w=0.357 //l=0.585 //layer=li \
 //thickness=0.1 //x=16.065 //y=0 //x2=16.65 //y2=0
r1210 (  197 453 ) resistor r=5.4201 //w=0.34 //l=0.17 //layer=li \
 //thickness=0.1 //x=17.96 //y=0 //x2=18.13 //y2=0
r1211 (  197 202 ) resistor r=7.17087 //w=0.357 //l=0.2 //layer=li \
 //thickness=0.1 //x=17.96 //y=0 //x2=17.76 //y2=0
r1212 (  193 452 ) resistor r=4.11603 //w=0.68 //l=0.17 //layer=li \
 //thickness=0.1 //x=15.98 //y=0.17 //x2=15.98 //y2=0
r1213 (  193 495 ) resistor r=53.7326 //w=0.187 //l=0.785 //layer=li \
 //thickness=0.1 //x=15.98 //y=0.17 //x2=15.98 //y2=0.955
r1214 (  190 451 ) resistor r=5.4201 //w=0.34 //l=0.17 //layer=li \
 //thickness=0.1 //x=14.97 //y=0 //x2=14.8 //y2=0
r1215 (  190 192 ) resistor r=20.437 //w=0.357 //l=0.57 //layer=li \
 //thickness=0.1 //x=14.97 //y=0 //x2=15.54 //y2=0
r1216 (  189 452 ) resistor r=2.94794 //w=0.34 //l=0.085 //layer=li \
 //thickness=0.1 //x=15.895 //y=0 //x2=15.98 //y2=0
r1217 (  189 192 ) resistor r=12.7283 //w=0.357 //l=0.355 //layer=li \
 //thickness=0.1 //x=15.895 //y=0 //x2=15.54 //y2=0
r1218 (  184 186 ) resistor r=39.7983 //w=0.357 //l=1.11 //layer=li \
 //thickness=0.1 //x=12.95 //y=0 //x2=14.06 //y2=0
r1219 (  182 450 ) resistor r=2.94794 //w=0.34 //l=0.085 //layer=li \
 //thickness=0.1 //x=12.735 //y=0 //x2=12.65 //y2=0
r1220 (  182 184 ) resistor r=7.70868 //w=0.357 //l=0.215 //layer=li \
 //thickness=0.1 //x=12.735 //y=0 //x2=12.95 //y2=0
r1221 (  181 451 ) resistor r=5.4201 //w=0.34 //l=0.17 //layer=li \
 //thickness=0.1 //x=14.63 //y=0 //x2=14.8 //y2=0
r1222 (  181 186 ) resistor r=20.437 //w=0.357 //l=0.57 //layer=li \
 //thickness=0.1 //x=14.63 //y=0 //x2=14.06 //y2=0
r1223 (  177 450 ) resistor r=4.11603 //w=0.68 //l=0.17 //layer=li \
 //thickness=0.1 //x=12.65 //y=0.17 //x2=12.65 //y2=0
r1224 (  177 494 ) resistor r=53.7326 //w=0.187 //l=0.785 //layer=li \
 //thickness=0.1 //x=12.65 //y=0.17 //x2=12.65 //y2=0.955
r1225 (  174 449 ) resistor r=5.4201 //w=0.34 //l=0.17 //layer=li \
 //thickness=0.1 //x=11.64 //y=0 //x2=11.47 //y2=0
r1226 (  174 176 ) resistor r=7.17087 //w=0.357 //l=0.2 //layer=li \
 //thickness=0.1 //x=11.64 //y=0 //x2=11.84 //y2=0
r1227 (  173 450 ) resistor r=2.94794 //w=0.34 //l=0.085 //layer=li \
 //thickness=0.1 //x=12.565 //y=0 //x2=12.65 //y2=0
r1228 (  173 176 ) resistor r=25.9944 //w=0.357 //l=0.725 //layer=li \
 //thickness=0.1 //x=12.565 //y=0 //x2=11.84 //y2=0
r1229 (  168 448 ) resistor r=2.94794 //w=0.34 //l=0.085 //layer=li \
 //thickness=0.1 //x=9.405 //y=0 //x2=9.32 //y2=0
r1230 (  168 170 ) resistor r=34.2409 //w=0.357 //l=0.955 //layer=li \
 //thickness=0.1 //x=9.405 //y=0 //x2=10.36 //y2=0
r1231 (  167 449 ) resistor r=5.4201 //w=0.34 //l=0.17 //layer=li \
 //thickness=0.1 //x=11.3 //y=0 //x2=11.47 //y2=0
r1232 (  167 170 ) resistor r=33.7031 //w=0.357 //l=0.94 //layer=li \
 //thickness=0.1 //x=11.3 //y=0 //x2=10.36 //y2=0
r1233 (  163 448 ) resistor r=4.11603 //w=0.68 //l=0.17 //layer=li \
 //thickness=0.1 //x=9.32 //y=0.17 //x2=9.32 //y2=0
r1234 (  163 493 ) resistor r=53.7326 //w=0.187 //l=0.785 //layer=li \
 //thickness=0.1 //x=9.32 //y=0.17 //x2=9.32 //y2=0.955