// File: TMRDFFSNRNQNX1.spi.pex
// Created: Tue Oct 15 15:53:00 2024
// Program "Calibre xRC"
// Version "v2023.2_27.15"
// Nominal Temperature: 30C
// Circuit Temperature: 30C
// 
simulator lang=spectre
subckt PM_TMRDFFSNRNQNX1\%GND ( 1 163 167 170 175 185 193 203 211 221 229 239 \
 247 257 265 275 283 293 301 311 319 329 337 347 355 365 373 383 391 401 409 \
 419 427 437 445 455 463 473 481 491 499 507 513 519 532 536 538 540 542 544 \
 546 548 550 552 554 556 558 560 562 564 566 568 570 572 575 577 578 579 580 \
 581 582 583 584 585 586 587 588 589 590 591 592 593 594 595 596 597 )
c1062 ( 597 0 ) capacitor c=0.0215012f //x=94.23 //y=0.865
c1063 ( 596 0 ) capacitor c=0.0215012f //x=90.9 //y=0.865
c1064 ( 595 0 ) capacitor c=0.0207058f //x=87.57 //y=0.865
c1065 ( 594 0 ) capacitor c=0.0225929f //x=82.655 //y=0.875
c1066 ( 593 0 ) capacitor c=0.0225954f //x=77.845 //y=0.875
c1067 ( 592 0 ) capacitor c=0.0225954f //x=73.035 //y=0.875
c1068 ( 591 0 ) capacitor c=0.0225954f //x=68.225 //y=0.875
c1069 ( 590 0 ) capacitor c=0.0225954f //x=63.415 //y=0.875
c1070 ( 589 0 ) capacitor c=0.0225954f //x=58.605 //y=0.875
c1071 ( 588 0 ) capacitor c=0.0225954f //x=53.795 //y=0.875
c1072 ( 587 0 ) capacitor c=0.0225954f //x=48.985 //y=0.875
c1073 ( 586 0 ) capacitor c=0.0225954f //x=44.175 //y=0.875
c1074 ( 585 0 ) capacitor c=0.0225954f //x=39.365 //y=0.875
c1075 ( 584 0 ) capacitor c=0.0225954f //x=34.555 //y=0.875
c1076 ( 583 0 ) capacitor c=0.0225954f //x=29.745 //y=0.875
c1077 ( 582 0 ) capacitor c=0.0225954f //x=24.935 //y=0.875
c1078 ( 581 0 ) capacitor c=0.0225954f //x=20.125 //y=0.875
c1079 ( 580 0 ) capacitor c=0.0225954f //x=15.315 //y=0.875
c1080 ( 579 0 ) capacitor c=0.0225954f //x=10.505 //y=0.875
c1081 ( 578 0 ) capacitor c=0.0225954f //x=5.695 //y=0.875
c1082 ( 577 0 ) capacitor c=0.022675f //x=0.885 //y=0.875
c1083 ( 576 0 ) capacitor c=0.00440095f //x=94.42 //y=0
c1084 ( 575 0 ) capacitor c=0.101195f //x=93.24 //y=0
c1085 ( 574 0 ) capacitor c=0.00440095f //x=91.02 //y=0
c1086 ( 572 0 ) capacitor c=0.116097f //x=89.91 //y=0
c1087 ( 571 0 ) capacitor c=0.00440095f //x=87.76 //y=0
c1088 ( 570 0 ) capacitor c=0.106684f //x=86.58 //y=0
c1089 ( 569 0 ) capacitor c=0.00440144f //x=82.845 //y=0
c1090 ( 568 0 ) capacitor c=0.107013f //x=81.77 //y=0
c1091 ( 567 0 ) capacitor c=0.00440144f //x=78.035 //y=0
c1092 ( 566 0 ) capacitor c=0.106777f //x=76.96 //y=0
c1093 ( 565 0 ) capacitor c=0.00440144f //x=73.225 //y=0
c1094 ( 564 0 ) capacitor c=0.107052f //x=72.15 //y=0
c1095 ( 563 0 ) capacitor c=0.00440144f //x=68.415 //y=0
c1096 ( 562 0 ) capacitor c=0.107294f //x=67.34 //y=0
c1097 ( 561 0 ) capacitor c=0.00440144f //x=63.605 //y=0
c1098 ( 560 0 ) capacitor c=0.10703f //x=62.53 //y=0
c1099 ( 559 0 ) capacitor c=0.00440144f //x=58.795 //y=0
c1100 ( 558 0 ) capacitor c=0.106176f //x=57.72 //y=0
c1101 ( 557 0 ) capacitor c=0.00440144f //x=53.985 //y=0
c1102 ( 556 0 ) capacitor c=0.107346f //x=52.91 //y=0
c1103 ( 555 0 ) capacitor c=0.00440144f //x=49.175 //y=0
c1104 ( 554 0 ) capacitor c=0.106777f //x=48.1 //y=0
c1105 ( 553 0 ) capacitor c=0.00440144f //x=44.365 //y=0
c1106 ( 552 0 ) capacitor c=0.107052f //x=43.29 //y=0
c1107 ( 551 0 ) capacitor c=0.00440144f //x=39.555 //y=0
c1108 ( 550 0 ) capacitor c=0.107294f //x=38.48 //y=0
c1109 ( 549 0 ) capacitor c=0.00440144f //x=34.745 //y=0
c1110 ( 548 0 ) capacitor c=0.10703f //x=33.67 //y=0
c1111 ( 547 0 ) capacitor c=0.00440144f //x=29.935 //y=0
c1112 ( 546 0 ) capacitor c=0.107024f //x=28.86 //y=0
c1113 ( 545 0 ) capacitor c=0.00440144f //x=25.125 //y=0
c1114 ( 544 0 ) capacitor c=0.10703f //x=24.05 //y=0
c1115 ( 543 0 ) capacitor c=0.00440144f //x=20.315 //y=0
c1116 ( 542 0 ) capacitor c=0.106903f //x=19.24 //y=0
c1117 ( 541 0 ) capacitor c=0.00440144f //x=15.505 //y=0
c1118 ( 540 0 ) capacitor c=0.107052f //x=14.43 //y=0
c1119 ( 539 0 ) capacitor c=0.00440144f //x=10.695 //y=0
c1120 ( 538 0 ) capacitor c=0.107294f //x=9.62 //y=0
c1121 ( 537 0 ) capacitor c=0.00440144f //x=5.885 //y=0
c1122 ( 536 0 ) capacitor c=0.10703f //x=4.81 //y=0
c1123 ( 535 0 ) capacitor c=0.00440144f //x=1.075 //y=0
c1124 ( 532 0 ) capacitor c=0.258637f //x=95.83 //y=0
c1125 ( 519 0 ) capacitor c=0.0389876f //x=94.335 //y=0
c1126 ( 513 0 ) capacitor c=0.0716428f //x=93.07 //y=0
c1127 ( 507 0 ) capacitor c=0.0388276f //x=91.005 //y=0
c1128 ( 499 0 ) capacitor c=0.0717274f //x=89.74 //y=0
c1129 ( 491 0 ) capacitor c=0.039094f //x=87.675 //y=0
c1130 ( 481 0 ) capacitor c=0.133362f //x=86.41 //y=0
c1131 ( 473 0 ) capacitor c=0.0339325f //x=82.76 //y=0
c1132 ( 463 0 ) capacitor c=0.133705f //x=81.6 //y=0
c1133 ( 455 0 ) capacitor c=0.0339325f //x=77.95 //y=0
c1134 ( 445 0 ) capacitor c=0.133561f //x=76.79 //y=0
c1135 ( 437 0 ) capacitor c=0.0339325f //x=73.14 //y=0
c1136 ( 427 0 ) capacitor c=0.133362f //x=71.98 //y=0
c1137 ( 419 0 ) capacitor c=0.0339325f //x=68.33 //y=0
c1138 ( 409 0 ) capacitor c=0.133362f //x=67.17 //y=0
c1139 ( 401 0 ) capacitor c=0.0339325f //x=63.52 //y=0
c1140 ( 391 0 ) capacitor c=0.133362f //x=62.36 //y=0
c1141 ( 383 0 ) capacitor c=0.0339325f //x=58.71 //y=0
c1142 ( 373 0 ) capacitor c=0.133362f //x=57.55 //y=0
c1143 ( 365 0 ) capacitor c=0.0339325f //x=53.9 //y=0
c1144 ( 355 0 ) capacitor c=0.133362f //x=52.74 //y=0
c1145 ( 347 0 ) capacitor c=0.0339325f //x=49.09 //y=0
c1146 ( 337 0 ) capacitor c=0.133561f //x=47.93 //y=0
c1147 ( 329 0 ) capacitor c=0.0339325f //x=44.28 //y=0
c1148 ( 319 0 ) capacitor c=0.133362f //x=43.12 //y=0
c1149 ( 311 0 ) capacitor c=0.0339325f //x=39.47 //y=0
c1150 ( 301 0 ) capacitor c=0.133362f //x=38.31 //y=0
c1151 ( 293 0 ) capacitor c=0.0339325f //x=34.66 //y=0
c1152 ( 283 0 ) capacitor c=0.133362f //x=33.5 //y=0
c1153 ( 275 0 ) capacitor c=0.0339325f //x=29.85 //y=0
c1154 ( 265 0 ) capacitor c=0.133362f //x=28.69 //y=0
c1155 ( 257 0 ) capacitor c=0.0339325f //x=25.04 //y=0
c1156 ( 247 0 ) capacitor c=0.133362f //x=23.88 //y=0
c1157 ( 239 0 ) capacitor c=0.0339325f //x=20.23 //y=0
c1158 ( 229 0 ) capacitor c=0.133561f //x=19.07 //y=0
c1159 ( 221 0 ) capacitor c=0.0339325f //x=15.42 //y=0
c1160 ( 211 0 ) capacitor c=0.133362f //x=14.26 //y=0
c1161 ( 203 0 ) capacitor c=0.0339325f //x=10.61 //y=0
c1162 ( 193 0 ) capacitor c=0.133362f //x=9.45 //y=0
c1163 ( 185 0 ) capacitor c=0.0339325f //x=5.8 //y=0
c1164 ( 175 0 ) capacitor c=0.133402f //x=4.64 //y=0
c1165 ( 170 0 ) capacitor c=0.178058f //x=0.74 //y=0
c1166 ( 167 0 ) capacitor c=0.0367385f //x=0.99 //y=0
c1167 ( 163 0 ) capacitor c=2.86297f //x=95.83 //y=0
r1168 (  530 532 ) resistor r=39.7983 //w=0.357 //l=1.11 //layer=li \
 //thickness=0.1 //x=94.72 //y=0 //x2=95.83 //y2=0
r1169 (  528 576 ) resistor r=2.94794 //w=0.34 //l=0.085 //layer=li \
 //thickness=0.1 //x=94.505 //y=0 //x2=94.42 //y2=0
r1170 (  528 530 ) resistor r=7.70868 //w=0.357 //l=0.215 //layer=li \
 //thickness=0.1 //x=94.505 //y=0 //x2=94.72 //y2=0
r1171 (  523 576 ) resistor r=4.11603 //w=0.68 //l=0.17 //layer=li \
 //thickness=0.1 //x=94.42 //y=0.17 //x2=94.42 //y2=0
r1172 (  523 597 ) resistor r=53.7326 //w=0.187 //l=0.785 //layer=li \
 //thickness=0.1 //x=94.42 //y=0.17 //x2=94.42 //y2=0.955
r1173 (  520 575 ) resistor r=5.4201 //w=0.34 //l=0.17 //layer=li \
 //thickness=0.1 //x=93.41 //y=0 //x2=93.24 //y2=0
r1174 (  520 522 ) resistor r=7.17087 //w=0.357 //l=0.2 //layer=li \
 //thickness=0.1 //x=93.41 //y=0 //x2=93.61 //y2=0
r1175 (  519 576 ) resistor r=2.94794 //w=0.34 //l=0.085 //layer=li \
 //thickness=0.1 //x=94.335 //y=0 //x2=94.42 //y2=0
r1176 (  519 522 ) resistor r=25.9944 //w=0.357 //l=0.725 //layer=li \
 //thickness=0.1 //x=94.335 //y=0 //x2=93.61 //y2=0
r1177 (  514 574 ) resistor r=2.94794 //w=0.34 //l=0.085 //layer=li \
 //thickness=0.1 //x=91.175 //y=0 //x2=91.09 //y2=0
r1178 (  514 516 ) resistor r=34.2409 //w=0.357 //l=0.955 //layer=li \
 //thickness=0.1 //x=91.175 //y=0 //x2=92.13 //y2=0
r1179 (  513 575 ) resistor r=5.4201 //w=0.34 //l=0.17 //layer=li \
 //thickness=0.1 //x=93.07 //y=0 //x2=93.24 //y2=0
r1180 (  513 516 ) resistor r=33.7031 //w=0.357 //l=0.94 //layer=li \
 //thickness=0.1 //x=93.07 //y=0 //x2=92.13 //y2=0
r1181 (  509 574 ) resistor r=4.11603 //w=0.68 //l=0.17 //layer=li \
 //thickness=0.1 //x=91.09 //y=0.17 //x2=91.09 //y2=0
r1182 (  509 596 ) resistor r=53.7326 //w=0.187 //l=0.785 //layer=li \
 //thickness=0.1 //x=91.09 //y=0.17 //x2=91.09 //y2=0.955
r1183 (  508 572 ) resistor r=5.4201 //w=0.34 //l=0.17 //layer=li \
 //thickness=0.1 //x=90.08 //y=0 //x2=89.91 //y2=0
r1184 (  507 574 ) resistor r=2.94794 //w=0.34 //l=0.085 //layer=li \
 //thickness=0.1 //x=91.005 //y=0 //x2=91.09 //y2=0
r1185 (  507 508 ) resistor r=33.1653 //w=0.357 //l=0.925 //layer=li \
 //thickness=0.1 //x=91.005 //y=0 //x2=90.08 //y2=0
r1186 (  502 504 ) resistor r=39.7983 //w=0.357 //l=1.11 //layer=li \
 //thickness=0.1 //x=88.43 //y=0 //x2=89.54 //y2=0
r1187 (  500 571 ) resistor r=2.94794 //w=0.34 //l=0.085 //layer=li \
 //thickness=0.1 //x=87.845 //y=0 //x2=87.76 //y2=0
r1188 (  500 502 ) resistor r=20.9748 //w=0.357 //l=0.585 //layer=li \
 //thickness=0.1 //x=87.845 //y=0 //x2=88.43 //y2=0
r1189 (  499 572 ) resistor r=5.4201 //w=0.34 //l=0.17 //layer=li \
 //thickness=0.1 //x=89.74 //y=0 //x2=89.91 //y2=0
r1190 (  499 504 ) resistor r=7.17087 //w=0.357 //l=0.2 //layer=li \
 //thickness=0.1 //x=89.74 //y=0 //x2=89.54 //y2=0
r1191 (  495 571 ) resistor r=4.11603 //w=0.68 //l=0.17 //layer=li \
 //thickness=0.1 //x=87.76 //y=0.17 //x2=87.76 //y2=0
r1192 (  495 595 ) resistor r=53.7326 //w=0.187 //l=0.785 //layer=li \
 //thickness=0.1 //x=87.76 //y=0.17 //x2=87.76 //y2=0.955
r1193 (  492 570 ) resistor r=5.4201 //w=0.34 //l=0.17 //layer=li \
 //thickness=0.1 //x=86.75 //y=0 //x2=86.58 //y2=0
r1194 (  492 494 ) resistor r=20.437 //w=0.357 //l=0.57 //layer=li \
 //thickness=0.1 //x=86.75 //y=0 //x2=87.32 //y2=0
r1195 (  491 571 ) resistor r=2.94794 //w=0.34 //l=0.085 //layer=li \
 //thickness=0.1 //x=87.675 //y=0 //x2=87.76 //y2=0
r1196 (  491 494 ) resistor r=12.7283 //w=0.357 //l=0.355 //layer=li \
 //thickness=0.1 //x=87.675 //y=0 //x2=87.32 //y2=0
r1197 (  486 488 ) resistor r=39.7983 //w=0.357 //l=1.11 //layer=li \
 //thickness=0.1 //x=84.73 //y=0 //x2=85.84 //y2=0
r1198 (  484 486 ) resistor r=39.7983 //w=0.357 //l=1.11 //layer=li \
 //thickness=0.1 //x=83.62 //y=0 //x2=84.73 //y2=0
r1199 (  482 569 ) resistor r=2.94794 //w=0.34 //l=0.085 //layer=li \
 //thickness=0.1 //x=82.93 //y=0 //x2=82.845 //y2=0
r1200 (  482 484 ) resistor r=24.7395 //w=0.357 //l=0.69 //layer=li \
 //thickness=0.1 //x=82.93 //y=0 //x2=83.62 //y2=0
r1201 (  481 570 ) resistor r=5.4201 //w=0.34 //l=0.17 //layer=li \
 //thickness=0.1 //x=86.41 //y=0 //x2=86.58 //y2=0
r1202 (  481 488 ) resistor r=20.437 //w=0.357 //l=0.57 //layer=li \
 //thickness=0.1 //x=86.41 //y=0 //x2=85.84 //y2=0
r1203 (  477 569 ) resistor r=4.11603 //w=0.68 //l=0.17 //layer=li \
 //thickness=0.1 //x=82.845 //y=0.17 //x2=82.845 //y2=0
r1204 (  477 594 ) resistor r=54.4171 //w=0.187 //l=0.795 //layer=li \
 //thickness=0.1 //x=82.845 //y=0.17 //x2=82.845 //y2=0.965
r1205 (  474 568 ) resistor r=5.4201 //w=0.34 //l=0.17 //layer=li \
 //thickness=0.1 //x=81.94 //y=0 //x2=81.77 //y2=0
r1206 (  474 476 ) resistor r=20.437 //w=0.357 //l=0.57 //layer=li \
 //thickness=0.1 //x=81.94 //y=0 //x2=82.51 //y2=0
r1207 (  473 569 ) resistor r=2.94794 //w=0.34 //l=0.085 //layer=li \
 //thickness=0.1 //x=82.76 //y=0 //x2=82.845 //y2=0
r1208 (  473 476 ) resistor r=8.96359 //w=0.357 //l=0.25 //layer=li \
 //thickness=0.1 //x=82.76 //y=0 //x2=82.51 //y2=0
r1209 (  468 470 ) resistor r=39.7983 //w=0.357 //l=1.11 //layer=li \
 //thickness=0.1 //x=79.92 //y=0 //x2=81.03 //y2=0
r1210 (  466 468 ) resistor r=39.7983 //w=0.357 //l=1.11 //layer=li \
 //thickness=0.1 //x=78.81 //y=0 //x2=79.92 //y2=0
r1211 (  464 567 ) resistor r=2.94794 //w=0.34 //l=0.085 //layer=li \
 //thickness=0.1 //x=78.12 //y=0 //x2=78.035 //y2=0
r1212 (  464 466 ) resistor r=24.7395 //w=0.357 //l=0.69 //layer=li \
 //thickness=0.1 //x=78.12 //y=0 //x2=78.81 //y2=0
r1213 (  463 568 ) resistor r=5.4201 //w=0.34 //l=0.17 //layer=li \
 //thickness=0.1 //x=81.6 //y=0 //x2=81.77 //y2=0
r1214 (  463 470 ) resistor r=20.437 //w=0.357 //l=0.57 //layer=li \
 //thickness=0.1 //x=81.6 //y=0 //x2=81.03 //y2=0
r1215 (  459 567 ) resistor r=4.11603 //w=0.68 //l=0.17 //layer=li \
 //thickness=0.1 //x=78.035 //y=0.17 //x2=78.035 //y2=0
r1216 (  459 593 ) resistor r=54.4171 //w=0.187 //l=0.795 //layer=li \
 //thickness=0.1 //x=78.035 //y=0.17 //x2=78.035 //y2=0.965
r1217 (  456 566 ) resistor r=5.4201 //w=0.34 //l=0.17 //layer=li \
 //thickness=0.1 //x=77.13 //y=0 //x2=76.96 //y2=0
r1218 (  456 458 ) resistor r=20.437 //w=0.357 //l=0.57 //layer=li \
 //thickness=0.1 //x=77.13 //y=0 //x2=77.7 //y2=0
r1219 (  455 567 ) resistor r=2.94794 //w=0.34 //l=0.085 //layer=li \
 //thickness=0.1 //x=77.95 //y=0 //x2=78.035 //y2=0
r1220 (  455 458 ) resistor r=8.96359 //w=0.357 //l=0.25 //layer=li \
 //thickness=0.1 //x=77.95 //y=0 //x2=77.7 //y2=0
r1221 (  450 452 ) resistor r=39.7983 //w=0.357 //l=1.11 //layer=li \
 //thickness=0.1 //x=75.11 //y=0 //x2=76.22 //y2=0
r1222 (  448 450 ) resistor r=39.7983 //w=0.357 //l=1.11 //layer=li \
 //thickness=0.1 //x=74 //y=0 //x2=75.11 //y2=0
r1223 (  446 565 ) resistor r=2.94794 //w=0.34 //l=0.085 //layer=li \
 //thickness=0.1 //x=73.31 //y=0 //x2=73.225 //y2=0
r1224 (  446 448 ) resistor r=24.7395 //w=0.357 //l=0.69 //layer=li \
 //thickness=0.1 //x=73.31 //y=0 //x2=74 //y2=0
r1225 (  445 566 ) resistor r=5.4201 //w=0.34 //l=0.17 //layer=li \
 //thickness=0.1 //x=76.79 //y=0 //x2=76.96 //y2=0
r1226 (  445 452 ) resistor r=20.437 //w=0.357 //l=0.57 //layer=li \
 //thickness=0.1 //x=76.79 //y=0 //x2=76.22 //y2=0
r1227 (  441 565 ) resistor r=4.11603 //w=0.68 //l=0.17 //layer=li \
 //thickness=0.1 //x=73.225 //y=0.17 //x2=73.225 //y2=0
r1228 (  441 592 ) resistor r=54.4171 //w=0.187 //l=0.795 //layer=li \
 //thickness=0.1 //x=73.225 //y=0.17 //x2=73.225 //y2=0.965
r1229 (  438 564 ) resistor r=5.4201 //w=0.34 //l=0.17 //layer=li \
 //thickness=0.1 //x=72.32 //y=0 //x2=72.15 //y2=0
r1230 (  438 440 ) resistor r=20.437 //w=0.357 //l=0.57 //layer=li \
 //thickness=0.1 //x=72.32 //y=0 //x2=72.89 //y2=0
r1231 (  437 565 ) resistor r=2.94794 //w=0.34 //l=0.085 //layer=li \
 //thickness=0.1 //x=73.14 //y=0 //x2=73.225 //y2=0
r1232 (  437 440 ) resistor r=8.96359 //w=0.357 //l=0.25 //layer=li \
 //thickness=0.1 //x=73.14 //y=0 //x2=72.89 //y2=0
r1233 (  432 434 ) resistor r=39.7983 //w=0.357 //l=1.11 //layer=li \
 //thickness=0.1 //x=70.3 //y=0 //x2=71.41 //y2=0
r1234 (  430 432 ) resistor r=39.7983 //w=0.357 //l=1.11 //layer=li \
 //thickness=0.1 //x=69.19 //y=0 //x2=70.3 //y2=0
r1235 (  428 563 ) resistor r=2.94794 //w=0.34 //l=0.085 //layer=li \
 //thickness=0.1 //x=68.5 //y=0 //x2=68.415 //y2=0
r1236 (  428 430 ) resistor r=24.7395 //w=0.357 //l=0.69 //layer=li \
 //thickness=0.1 //x=68.5 //y=0 //x2=69.19 //y2=0
r1237 (  427 564 ) resistor r=5.4201 //w=0.34 //l=0.17 //layer=li \
 //thickness=0.1 //x=71.98 //y=0 //x2=72.15 //y2=0
r1238 (  427 434 ) resistor r=20.437 //w=0.357 //l=0.57 //layer=li \
 //thickness=0.1 //x=71.98 //y=0 //x2=71.41 //y2=0
r1239 (  423 563 ) resistor r=4.11603 //w=0.68 //l=0.17 //layer=li \
 //thickness=0.1 //x=68.415 //y=0.17 //x2=68.415 //y2=0
r1240 (  423 591 ) resistor r=54.4171 //w=0.187 //l=0.795 //layer=li \
 //thickness=0.1 //x=68.415 //y=0.17 //x2=68.415 //y2=0.965
r1241 (  420 562 ) resistor r=5.4201 //w=0.34 //l=0.17 //layer=li \
 //thickness=0.1 //x=67.51 //y=0 //x2=67.34 //y2=0
r1242 (  420 422 ) resistor r=20.437 //w=0.357 //l=0.57 //layer=li \
 //thickness=0.1 //x=67.51 //y=0 //x2=68.08 //y2=0
r1243 (  419 563 ) resistor r=2.94794 //w=0.34 //l=0.085 //layer=li \
 //thickness=0.1 //x=68.33 //y=0 //x2=68.415 //y2=0
r1244 (  419 422 ) resistor r=8.96359 //w=0.357 //l=0.25 //layer=li \
 //thickness=0.1 //x=68.33 //y=0 //x2=68.08 //y2=0
r1245 (  414 416 ) resistor r=39.7983 //w=0.357 //l=1.11 //layer=li \
 //thickness=0.1 //x=65.49 //y=0 //x2=66.6 //y2=0
r1246 (  412 414 ) resistor r=39.7983 //w=0.357 //l=1.11 //layer=li \
 //thickness=0.1 //x=64.38 //y=0 //x2=65.49 //y2=0
r1247 (  410 561 ) resistor r=2.94794 //w=0.34 //l=0.085 //layer=li \
 //thickness=0.1 //x=63.69 //y=0 //x2=63.605 //y2=0
r1248 (  410 412 ) resistor r=24.7395 //w=0.357 //l=0.69 //layer=li \
 //thickness=0.1 //x=63.69 //y=0 //x2=64.38 //y2=0
r1249 (  409 562 ) resistor r=5.4201 //w=0.34 //l=0.17 //layer=li \
 //thickness=0.1 //x=67.17 //y=0 //x2=67.34 //y2=0
r1250 (  409 416 ) resistor r=20.437 //w=0.357 //l=0.57 //layer=li \
 //thickness=0.1 //x=67.17 //y=0 //x2=66.6 //y2=0
r1251 (  405 561 ) resistor r=4.11603 //w=0.68 //l=0.17 //layer=li \
 //thickness=0.1 //x=63.605 //y=0.17 //x2=63.605 //y2=0
r1252 (  405 590 ) resistor r=54.4171 //w=0.187 //l=0.795 //layer=li \
 //thickness=0.1 //x=63.605 //y=0.17 //x2=63.605 //y2=0.965
r1253 (  402 560 ) resistor r=5.4201 //w=0.34 //l=0.17 //layer=li \
 //thickness=0.1 //x=62.7 //y=0 //x2=62.53 //y2=0
r1254 (  402 404 ) resistor r=20.437 //w=0.357 //l=0.57 //layer=li \
 //thickness=0.1 //x=62.7 //y=0 //x2=63.27 //y2=0
r1255 (  401 561 ) resistor r=2.94794 //w=0.34 //l=0.085 //layer=li \
 //thickness=0.1 //x=63.52 //y=0 //x2=63.605 //y2=0
r1256 (  401 404 ) resistor r=8.96359 //w=0.357 //l=0.25 //layer=li \
 //thickness=0.1 //x=63.52 //y=0 //x2=63.27 //y2=0
r1257 (  396 398 ) resistor r=39.7983 //w=0.357 //l=1.11 //layer=li \
 //thickness=0.1 //x=60.68 //y=0 //x2=61.79 //y2=0
r1258 (  394 396 ) resistor r=39.7983 //w=0.357 //l=1.11 //layer=li \
 //thickness=0.1 //x=59.57 //y=0 //x2=60.68 //y2=0
r1259 (  392 559 ) resistor r=2.94794 //w=0.34 //l=0.085 //layer=li \
 //thickness=0.1 //x=58.88 //y=0 //x2=58.795 //y2=0
r1260 (  392 394 ) resistor r=24.7395 //w=0.357 //l=0.69 //layer=li \
 //thickness=0.1 //x=58.88 //y=0 //x2=59.57 //y2=0
r1261 (  391 560 ) resistor r=5.4201 //w=0.34 //l=0.17 //layer=li \
 //thickness=0.1 //x=62.36 //y=0 //x2=62.53 //y2=0
r1262 (  391 398 ) resistor r=20.437 //w=0.357 //l=0.57 //layer=li \
 //thickness=0.1 //x=62.36 //y=0 //x2=61.79 //y2=0
r1263 (  387 559 ) resistor r=4.11603 //w=0.68 //l=0.17 //layer=li \
 //thickness=0.1 //x=58.795 //y=0.17 //x2=58.795 //y2=0
r1264 (  387 589 ) resistor r=54.4171 //w=0.187 //l=0.795 //layer=li \
 //thickness=0.1 //x=58.795 //y=0.17 //x2=58.795 //y2=0.965
r1265 (  384 558 ) resistor r=5.4201 //w=0.34 //l=0.17 //layer=li \
 //thickness=0.1 //x=57.89 //y=0 //x2=57.72 //y2=0
r1266 (  384 386 ) resistor r=20.437 //w=0.357 //l=0.57 //layer=li \
 //thickness=0.1 //x=57.89 //y=0 //x2=58.46 //y2=0
r1267 (  383 559 ) resistor r=2.94794 //w=0.34 //l=0.085 //layer=li \
 //thickness=0.1 //x=58.71 //y=0 //x2=58.795 //y2=0
r1268 (  383 386 ) resistor r=8.96359 //w=0.357 //l=0.25 //layer=li \
 //thickness=0.1 //x=58.71 //y=0 //x2=58.46 //y2=0
r1269 (  378 380 ) resistor r=39.7983 //w=0.357 //l=1.11 //layer=li \
 //thickness=0.1 //x=55.87 //y=0 //x2=56.98 //y2=0
r1270 (  376 378 ) resistor r=39.7983 //w=0.357 //l=1.11 //layer=li \
 //thickness=0.1 //x=54.76 //y=0 //x2=55.87 //y2=0
r1271 (  374 557 ) resistor r=2.94794 //w=0.34 //l=0.085 //layer=li \
 //thickness=0.1 //x=54.07 //y=0 //x2=53.985 //y2=0
r1272 (  374 376 ) resistor r=24.7395 //w=0.357 //l=0.69 //layer=li \
 //thickness=0.1 //x=54.07 //y=0 //x2=54.76 //y2=0
r1273 (  373 558 ) resistor r=5.4201 //w=0.34 //l=0.17 //layer=li \
 //thickness=0.1 //x=57.55 //y=0 //x2=57.72 //y2=0
r1274 (  373 380 ) resistor r=20.437 //w=0.357 //l=0.57 //layer=li \
 //thickness=0.1 //x=57.55 //y=0 //x2=56.98 //y2=0
r1275 (  369 557 ) resistor r=4.11603 //w=0.68 //l=0.17 //layer=li \
 //thickness=0.1 //x=53.985 //y=0.17 //x2=53.985 //y2=0
r1276 (  369 588 ) resistor r=54.4171 //w=0.187 //l=0.795 //layer=li \
 //thickness=0.1 //x=53.985 //y=0.17 //x2=53.985 //y2=0.965
r1277 (  366 556 ) resistor r=5.4201 //w=0.34 //l=0.17 //layer=li \
 //thickness=0.1 //x=53.08 //y=0 //x2=52.91 //y2=0
r1278 (  366 368 ) resistor r=20.437 //w=0.357 //l=0.57 //layer=li \
 //thickness=0.1 //x=53.08 //y=0 //x2=53.65 //y2=0
r1279 (  365 557 ) resistor r=2.94794 //w=0.34 //l=0.085 //layer=li \
 //thickness=0.1 //x=53.9 //y=0 //x2=53.985 //y2=0
r1280 (  365 368 ) resistor r=8.96359 //w=0.357 //l=0.25 //layer=li \
 //thickness=0.1 //x=53.9 //y=0 //x2=53.65 //y2=0
r1281 (  360 362 ) resistor r=39.7983 //w=0.357 //l=1.11 //layer=li \
 //thickness=0.1 //x=51.06 //y=0 //x2=52.17 //y2=0
r1282 (  358 360 ) resistor r=39.7983 //w=0.357 //l=1.11 //layer=li \
 //thickness=0.1 //x=49.95 //y=0 //x2=51.06 //y2=0
r1283 (  356 555 ) resistor r=2.94794 //w=0.34 //l=0.085 //layer=li \
 //thickness=0.1 //x=49.26 //y=0 //x2=49.175 //y2=0
r1284 (  356 358 ) resistor r=24.7395 //w=0.357 //l=0.69 //layer=li \
 //thickness=0.1 //x=49.26 //y=0 //x2=49.95 //y2=0
r1285 (  355 556 ) resistor r=5.4201 //w=0.34 //l=0.17 //layer=li \
 //thickness=0.1 //x=52.74 //y=0 //x2=52.91 //y2=0
r1286 (  355 362 ) resistor r=20.437 //w=0.357 //l=0.57 //layer=li \
 //thickness=0.1 //x=52.74 //y=0 //x2=52.17 //y2=0
r1287 (  351 555 ) resistor r=4.11603 //w=0.68 //l=0.17 //layer=li \
 //thickness=0.1 //x=49.175 //y=0.17 //x2=49.175 //y2=0
r1288 (  351 587 ) resistor r=54.4171 //w=0.187 //l=0.795 //layer=li \
 //thickness=0.1 //x=49.175 //y=0.17 //x2=49.175 //y2=0.965
r1289 (  348 554 ) resistor r=5.4201 //w=0.34 //l=0.17 //layer=li \
 //thickness=0.1 //x=48.27 //y=0 //x2=48.1 //y2=0
r1290 (  348 350 ) resistor r=20.437 //w=0.357 //l=0.57 //layer=li \
 //thickness=0.1 //x=48.27 //y=0 //x2=48.84 //y2=0
r1291 (  347 555 ) resistor r=2.94794 //w=0.34 //l=0.085 //layer=li \
 //thickness=0.1 //x=49.09 //y=0 //x2=49.175 //y2=0
r1292 (  347 350 ) resistor r=8.96359 //w=0.357 //l=0.25 //layer=li \
 //thickness=0.1 //x=49.09 //y=0 //x2=48.84 //y2=0
r1293 (  342 344 ) resistor r=39.7983 //w=0.357 //l=1.11 //layer=li \
 //thickness=0.1 //x=46.25 //y=0 //x2=47.36 //y2=0
r1294 (  340 342 ) resistor r=39.7983 //w=0.357 //l=1.11 //layer=li \
 //thickness=0.1 //x=45.14 //y=0 //x2=46.25 //y2=0
r1295 (  338 553 ) resistor r=2.94794 //w=0.34 //l=0.085 //layer=li \
 //thickness=0.1 //x=44.45 //y=0 //x2=44.365 //y2=0
r1296 (  338 340 ) resistor r=24.7395 //w=0.357 //l=0.69 //layer=li \
 //thickness=0.1 //x=44.45 //y=0 //x2=45.14 //y2=0
r1297 (  337 554 ) resistor r=5.4201 //w=0.34 //l=0.17 //layer=li \
 //thickness=0.1 //x=47.93 //y=0 //x2=48.1 //y2=0
r1298 (  337 344 ) resistor r=20.437 //w=0.357 //l=0.57 //layer=li \
 //thickness=0.1 //x=47.93 //y=0 //x2=47.36 //y2=0
r1299 (  333 553 ) resistor r=4.11603 //w=0.68 //l=0.17 //layer=li \
 //thickness=0.1 //x=44.365 //y=0.17 //x2=44.365 //y2=0
r1300 (  333 586 ) resistor r=54.4171 //w=0.187 //l=0.795 //layer=li \
 //thickness=0.1 //x=44.365 //y=0.17 //x2=44.365 //y2=0.965
r1301 (  330 552 ) resistor r=5.4201 //w=0.34 //l=0.17 //layer=li \
 //thickness=0.1 //x=43.46 //y=0 //x2=43.29 //y2=0
r1302 (  330 332 ) resistor r=20.437 //w=0.357 //l=0.57 //layer=li \
 //thickness=0.1 //x=43.46 //y=0 //x2=44.03 //y2=0
r1303 (  329 553 ) resistor r=2.94794 //w=0.34 //l=0.085 //layer=li \
 //thickness=0.1 //x=44.28 //y=0 //x2=44.365 //y2=0
r1304 (  329 332 ) resistor r=8.96359 //w=0.357 //l=0.25 //layer=li \
 //thickness=0.1 //x=44.28 //y=0 //x2=44.03 //y2=0
r1305 (  324 326 ) resistor r=39.7983 //w=0.357 //l=1.11 //layer=li \
 //thickness=0.1 //x=41.44 //y=0 //x2=42.55 //y2=0
r1306 (  322 324 ) resistor r=39.7983 //w=0.357 //l=1.11 //layer=li \
 //thickness=0.1 //x=40.33 //y=0 //x2=41.44 //y2=0
r1307 (  320 551 ) resistor r=2.94794 //w=0.34 //l=0.085 //layer=li \
 //thickness=0.1 //x=39.64 //y=0 //x2=39.555 //y2=0
r1308 (  320 322 ) resistor r=24.7395 //w=0.357 //l=0.69 //layer=li \
 //thickness=0.1 //x=39.64 //y=0 //x2=40.33 //y2=0
r1309 (  319 552 ) resistor r=5.4201 //w=0.34 //l=0.17 //layer=li \
 //thickness=0.1 //x=43.12 //y=0 //x2=43.29 //y2=0
r1310 (  319 326 ) resistor r=20.437 //w=0.357 //l=0.57 //layer=li \
 //thickness=0.1 //x=43.12 //y=0 //x2=42.55 //y2=0
r1311 (  315 551 ) resistor r=4.11603 //w=0.68 //l=0.17 //layer=li \
 //thickness=0.1 //x=39.555 //y=0.17 //x2=39.555 //y2=0
r1312 (  315 585 ) resistor r=54.4171 //w=0.187 //l=0.795 //layer=li \
 //thickness=0.1 //x=39.555 //y=0.17 //x2=39.555 //y2=0.965
r1313 (  312 550 ) resistor r=5.4201 //w=0.34 //l=0.17 //layer=li \
 //thickness=0.1 //x=38.65 //y=0 //x2=38.48 //y2=0
r1314 (  312 314 ) resistor r=20.437 //w=0.357 //l=0.57 //layer=li \
 //thickness=0.1 //x=38.65 //y=0 //x2=39.22 //y2=0
r1315 (  311 551 ) resistor r=2.94794 //w=0.34 //l=0.085 //layer=li \
 //thickness=0.1 //x=39.47 //y=0 //x2=39.555 //y2=0
r1316 (  311 314 ) resistor r=8.96359 //w=0.357 //l=0.25 //layer=li \
 //thickness=0.1 //x=39.47 //y=0 //x2=39.22 //y2=0
r1317 (  306 308 ) resistor r=39.7983 //w=0.357 //l=1.11 //layer=li \
 //thickness=0.1 //x=36.63 //y=0 //x2=37.74 //y2=0
r1318 (  304 306 ) resistor r=39.7983 //w=0.357 //l=1.11 //layer=li \
 //thickness=0.1 //x=35.52 //y=0 //x2=36.63 //y2=0
r1319 (  302 549 ) resistor r=2.94794 //w=0.34 //l=0.085 //layer=li \
 //thickness=0.1 //x=34.83 //y=0 //x2=34.745 //y2=0
r1320 (  302 304 ) resistor r=24.7395 //w=0.357 //l=0.69 //layer=li \
 //thickness=0.1 //x=34.83 //y=0 //x2=35.52 //y2=0
r1321 (  301 550 ) resistor r=5.4201 //w=0.34 //l=0.17 //layer=li \
 //thickness=0.1 //x=38.31 //y=0 //x2=38.48 //y2=0
r1322 (  301 308 ) resistor r=20.437 //w=0.357 //l=0.57 //layer=li \
 //thickness=0.1 //x=38.31 //y=0 //x2=37.74 //y2=0
r1323 (  297 549 ) resistor r=4.11603 //w=0.68 //l=0.17 //layer=li \
 //thickness=0.1 //x=34.745 //y=0.17 //x2=34.745 //y2=0
r1324 (  297 584 ) resistor r=54.4171 //w=0.187 //l=0.795 //layer=li \
 //thickness=0.1 //x=34.745 //y=0.17 //x2=34.745 //y2=0.965
r1325 (  294 548 ) resistor r=5.4201 //w=0.34 //l=0.17 //layer=li \
 //thickness=0.1 //x=33.84 //y=0 //x2=33.67 //y2=0
r1326 (  294 296 ) resistor r=20.437 //w=0.357 //l=0.57 //layer=li \
 //thickness=0.1 //x=33.84 //y=0 //x2=34.41 //y2=0
r1327 (  293 549 ) resistor r=2.94794 //w=0.34 //l=0.085 //layer=li \
 //thickness=0.1 //x=34.66 //y=0 //x2=34.745 //y2=0
r1328 (  293 296 ) resistor r=8.96359 //w=0.357 //l=0.25 //layer=li \
 //thickness=0.1 //x=34.66 //y=0 //x2=34.41 //y2=0
r1329 (  288 290 ) resistor r=39.7983 //w=0.357 //l=1.11 //layer=li \
 //thickness=0.1 //x=31.82 //y=0 //x2=32.93 //y2=0
r1330 (  286 288 ) resistor r=39.7983 //w=0.357 //l=1.11 //layer=li \
 //thickness=0.1 //x=30.71 //y=0 //x2=31.82 //y2=0
r1331 (  284 547 ) resistor r=2.94794 //w=0.34 //l=0.085 //layer=li \
 //thickness=0.1 //x=30.02 //y=0 //x2=29.935 //y2=0
r1332 (  284 286 ) resistor r=24.7395 //w=0.357 //l=0.69 //layer=li \
 //thickness=0.1 //x=30.02 //y=0 //x2=30.71 //y2=0
r1333 (  283 548 ) resistor r=5.4201 //w=0.34 //l=0.17 //layer=li \
 //thickness=0.1 //x=33.5 //y=0 //x2=33.67 //y2=0
r1334 (  283 290 ) resistor r=20.437 //w=0.357 //l=0.57 //layer=li \
 //thickness=0.1 //x=33.5 //y=0 //x2=32.93 //y2=0
r1335 (  279 547 ) resistor r=4.11603 //w=0.68 //l=0.17 //layer=li \
 //thickness=0.1 //x=29.935 //y=0.17 //x2=29.935 //y2=0
r1336 (  279 583 ) resistor r=54.4171 //w=0.187 //l=0.795 //layer=li \
 //thickness=0.1 //x=29.935 //y=0.17 //x2=29.935 //y2=0.965
r1337 (  276 546 ) resistor r=5.4201 //w=0.34 //l=0.17 //layer=li \
 //thickness=0.1 //x=29.03 //y=0 //x2=28.86 //y2=0
r1338 (  276 278 ) resistor r=20.437 //w=0.357 //l=0.57 //layer=li \
 //thickness=0.1 //x=29.03 //y=0 //x2=29.6 //y2=0
r1339 (  275 547 ) resistor r=2.94794 //w=0.34 //l=0.085 //layer=li \
 //thickness=0.1 //x=29.85 //y=0 //x2=29.935 //y2=0
r1340 (  275 278 ) resistor r=8.96359 //w=0.357 //l=0.25 //layer=li \
 //thickness=0.1 //x=29.85 //y=0 //x2=29.6 //y2=0
r1341 (  270 272 ) resistor r=39.7983 //w=0.357 //l=1.11 //layer=li \
 //thickness=0.1 //x=27.01 //y=0 //x2=28.12 //y2=0
r1342 (  268 270 ) resistor r=39.7983 //w=0.357 //l=1.11 //layer=li \
 //thickness=0.1 //x=25.9 //y=0 //x2=27.01 //y2=0
r1343 (  266 545 ) resistor r=2.94794 //w=0.34 //l=0.085 //layer=li \
 //thickness=0.1 //x=25.21 //y=0 //x2=25.125 //y2=0
r1344 (  266 268 ) resistor r=24.7395 //w=0.357 //l=0.69 //layer=li \
 //thickness=0.1 //x=25.21 //y=0 //x2=25.9 //y2=0
r1345 (  265 546 ) resistor r=5.4201 //w=0.34 //l=0.17 //layer=li \
 //thickness=0.1 //x=28.69 //y=0 //x2=28.86 //y2=0
r1346 (  265 272 ) resistor r=20.437 //w=0.357 //l=0.57 //layer=li \
 //thickness=0.1 //x=28.69 //y=0 //x2=28.12 //y2=0
r1347 (  261 545 ) resistor r=4.11603 //w=0.68 //l=0.17 //layer=li \
 //thickness=0.1 //x=25.125 //y=0.17 //x2=25.125 //y2=0
r1348 (  261 582 ) resistor r=54.4171 //w=0.187 //l=0.795 //layer=li \
 //thickness=0.1 //x=25.125 //y=0.17 //x2=25.125 //y2=0.965
r1349 (  258 544 ) resistor r=5.4201 //w=0.34 //l=0.17 //layer=li \
 //thickness=0.1 //x=24.22 //y=0 //x2=24.05 //y2=0
r1350 (  258 260 ) resistor r=20.437 //w=0.357 //l=0.57 //layer=li \
 //thickness=0.1 //x=24.22 //y=0 //x2=24.79 //y2=0
r1351 (  257 545 ) resistor r=2.94794 //w=0.34 //l=0.085 //layer=li \
 //thickness=0.1 //x=25.04 //y=0 //x2=25.125 //y2=0
r1352 (  257 260 ) resistor r=8.96359 //w=0.357 //l=0.25 //layer=li \
 //thickness=0.1 //x=25.04 //y=0 //x2=24.79 //y2=0
r1353 (  252 254 ) resistor r=39.7983 //w=0.357 //l=1.11 //layer=li \
 //thickness=0.1 //x=22.2 //y=0 //x2=23.31 //y2=0
r1354 (  250 252 ) resistor r=39.7983 //w=0.357 //l=1.11 //layer=li \
 //thickness=0.1 //x=21.09 //y=0 //x2=22.2 //y2=0
r1355 (  248 543 ) resistor r=2.94794 //w=0.34 //l=0.085 //layer=li \
 //thickness=0.1 //x=20.4 //y=0 //x2=20.315 //y2=0
r1356 (  248 250 ) resistor r=24.7395 //w=0.357 //l=0.69 //layer=li \
 //thickness=0.1 //x=20.4 //y=0 //x2=21.09 //y2=0
r1357 (  247 544 ) resistor r=5.4201 //w=0.34 //l=0.17 //layer=li \
 //thickness=0.1 //x=23.88 //y=0 //x2=24.05 //y2=0
r1358 (  247 254 ) resistor r=20.437 //w=0.357 //l=0.57 //layer=li \
 //thickness=0.1 //x=23.88 //y=0 //x2=23.31 //y2=0
r1359 (  243 543 ) resistor r=4.11603 //w=0.68 //l=0.17 //layer=li \
 //thickness=0.1 //x=20.315 //y=0.17 //x2=20.315 //y2=0
r1360 (  243 581 ) resistor r=54.4171 //w=0.187 //l=0.795 //layer=li \
 //thickness=0.1 //x=20.315 //y=0.17 //x2=20.315 //y2=0.965