// File: VOTERN3X1.spi.pex
// Created: Tue Oct 15 15:53:41 2024
// Program "Calibre xRC"
// Version "v2023.2_27.15"
// Nominal Temperature: 30C
// Circuit Temperature: 30C
// 
simulator lang=spectre
subckt PM_VOTERN3X1\%GND ( 1 19 23 26 31 39 45 51 64 68 71 73 74 75 )
c138 ( 75 0 ) capacitor c=0.021507f //x=7.65 //y=0.865
c139 ( 74 0 ) capacitor c=0.021507f //x=4.32 //y=0.865
c140 ( 73 0 ) capacitor c=0.0208055f //x=0.99 //y=0.865
c141 ( 72 0 ) capacitor c=0.00440095f //x=7.84 //y=0
c142 ( 71 0 ) capacitor c=0.101477f //x=6.66 //y=0
c143 ( 70 0 ) capacitor c=0.00440095f //x=4.44 //y=0
c144 ( 68 0 ) capacitor c=0.118054f //x=3.33 //y=0
c145 ( 67 0 ) capacitor c=0.00440095f //x=1.18 //y=0
c146 ( 64 0 ) capacitor c=0.259174f //x=9.25 //y=0
c147 ( 51 0 ) capacitor c=0.0389876f //x=7.755 //y=0
c148 ( 45 0 ) capacitor c=0.0716428f //x=6.49 //y=0
c149 ( 39 0 ) capacitor c=0.0388276f //x=4.425 //y=0
c150 ( 31 0 ) capacitor c=0.0717807f //x=3.16 //y=0
c151 ( 26 0 ) capacitor c=0.177035f //x=0.74 //y=0
c152 ( 23 0 ) capacitor c=0.0422406f //x=1.095 //y=0
c153 ( 19 0 ) capacitor c=0.338433f //x=9.25 //y=0
r154 (  62 64 ) resistor r=39.7983 //w=0.357 //l=1.11 //layer=li \
 //thickness=0.1 //x=8.14 //y=0 //x2=9.25 //y2=0
r155 (  60 72 ) resistor r=2.94794 //w=0.34 //l=0.085 //layer=li \
 //thickness=0.1 //x=7.925 //y=0 //x2=7.84 //y2=0
r156 (  60 62 ) resistor r=7.70868 //w=0.357 //l=0.215 //layer=li \
 //thickness=0.1 //x=7.925 //y=0 //x2=8.14 //y2=0
r157 (  55 72 ) resistor r=4.11603 //w=0.68 //l=0.17 //layer=li \
 //thickness=0.1 //x=7.84 //y=0.17 //x2=7.84 //y2=0
r158 (  55 75 ) resistor r=53.7326 //w=0.187 //l=0.785 //layer=li \
 //thickness=0.1 //x=7.84 //y=0.17 //x2=7.84 //y2=0.955
r159 (  52 71 ) resistor r=5.4201 //w=0.34 //l=0.17 //layer=li //thickness=0.1 \
 //x=6.83 //y=0 //x2=6.66 //y2=0
r160 (  52 54 ) resistor r=7.17087 //w=0.357 //l=0.2 //layer=li \
 //thickness=0.1 //x=6.83 //y=0 //x2=7.03 //y2=0
r161 (  51 72 ) resistor r=2.94794 //w=0.34 //l=0.085 //layer=li \
 //thickness=0.1 //x=7.755 //y=0 //x2=7.84 //y2=0
r162 (  51 54 ) resistor r=25.9944 //w=0.357 //l=0.725 //layer=li \
 //thickness=0.1 //x=7.755 //y=0 //x2=7.03 //y2=0
r163 (  46 70 ) resistor r=2.94794 //w=0.34 //l=0.085 //layer=li \
 //thickness=0.1 //x=4.595 //y=0 //x2=4.51 //y2=0
r164 (  46 48 ) resistor r=34.2409 //w=0.357 //l=0.955 //layer=li \
 //thickness=0.1 //x=4.595 //y=0 //x2=5.55 //y2=0
r165 (  45 71 ) resistor r=5.4201 //w=0.34 //l=0.17 //layer=li //thickness=0.1 \
 //x=6.49 //y=0 //x2=6.66 //y2=0
r166 (  45 48 ) resistor r=33.7031 //w=0.357 //l=0.94 //layer=li \
 //thickness=0.1 //x=6.49 //y=0 //x2=5.55 //y2=0
r167 (  41 70 ) resistor r=4.11603 //w=0.68 //l=0.17 //layer=li \
 //thickness=0.1 //x=4.51 //y=0.17 //x2=4.51 //y2=0
r168 (  41 74 ) resistor r=53.7326 //w=0.187 //l=0.785 //layer=li \
 //thickness=0.1 //x=4.51 //y=0.17 //x2=4.51 //y2=0.955
r169 (  40 68 ) resistor r=5.4201 //w=0.34 //l=0.17 //layer=li //thickness=0.1 \
 //x=3.5 //y=0 //x2=3.33 //y2=0
r170 (  39 70 ) resistor r=2.94794 //w=0.34 //l=0.085 //layer=li \
 //thickness=0.1 //x=4.425 //y=0 //x2=4.51 //y2=0
r171 (  39 40 ) resistor r=33.1653 //w=0.357 //l=0.925 //layer=li \
 //thickness=0.1 //x=4.425 //y=0 //x2=3.5 //y2=0
r172 (  34 36 ) resistor r=39.7983 //w=0.357 //l=1.11 //layer=li \
 //thickness=0.1 //x=1.85 //y=0 //x2=2.96 //y2=0
r173 (  32 67 ) resistor r=2.94794 //w=0.34 //l=0.085 //layer=li \
 //thickness=0.1 //x=1.265 //y=0 //x2=1.18 //y2=0
r174 (  32 34 ) resistor r=20.9748 //w=0.357 //l=0.585 //layer=li \
 //thickness=0.1 //x=1.265 //y=0 //x2=1.85 //y2=0
r175 (  31 68 ) resistor r=5.4201 //w=0.34 //l=0.17 //layer=li //thickness=0.1 \
 //x=3.16 //y=0 //x2=3.33 //y2=0
r176 (  31 36 ) resistor r=7.17087 //w=0.357 //l=0.2 //layer=li \
 //thickness=0.1 //x=3.16 //y=0 //x2=2.96 //y2=0
r177 (  27 67 ) resistor r=4.11603 //w=0.68 //l=0.17 //layer=li \
 //thickness=0.1 //x=1.18 //y=0.17 //x2=1.18 //y2=0
r178 (  27 73 ) resistor r=53.7326 //w=0.187 //l=0.785 //layer=li \
 //thickness=0.1 //x=1.18 //y=0.17 //x2=1.18 //y2=0.955
r179 (  23 67 ) resistor r=2.94794 //w=0.34 //l=0.085 //layer=li \
 //thickness=0.1 //x=1.095 //y=0 //x2=1.18 //y2=0
r180 (  23 26 ) resistor r=12.7283 //w=0.357 //l=0.355 //layer=li \
 //thickness=0.1 //x=1.095 //y=0 //x2=0.74 //y2=0
r181 (  19 64 ) resistor r=3.1 //w=0.17 //l=0.51 //layer=mcon //count=3 \
 //x=9.25 //y=0 //x2=9.25 //y2=0
r182 (  17 62 ) resistor r=3.1 //w=0.17 //l=0.51 //layer=mcon //count=3 \
 //x=8.14 //y=0 //x2=8.14 //y2=0
r183 (  17 19 ) resistor r=0.460963 //w=0.301 //l=1.11 //layer=m1 \
 //thickness=0.36 //x=8.14 //y=0 //x2=9.25 //y2=0
r184 (  15 54 ) resistor r=3.1 //w=0.17 //l=0.51 //layer=mcon //count=3 \
 //x=7.03 //y=0 //x2=7.03 //y2=0
r185 (  15 17 ) resistor r=0.460963 //w=0.301 //l=1.11 //layer=m1 \
 //thickness=0.36 //x=7.03 //y=0 //x2=8.14 //y2=0
r186 (  13 48 ) resistor r=3.1 //w=0.17 //l=0.51 //layer=mcon //count=3 \
 //x=5.55 //y=0 //x2=5.55 //y2=0
r187 (  13 15 ) resistor r=0.614618 //w=0.301 //l=1.48 //layer=m1 \
 //thickness=0.36 //x=5.55 //y=0 //x2=7.03 //y2=0
r188 (  10 70 ) resistor r=3.1 //w=0.17 //l=0.51 //layer=mcon //count=3 \
 //x=4.44 //y=0 //x2=4.44 //y2=0
r189 (  8 36 ) resistor r=3.1 //w=0.17 //l=0.51 //layer=mcon //count=3 \
 //x=2.96 //y=0 //x2=2.96 //y2=0
r190 (  8 10 ) resistor r=0.614618 //w=0.301 //l=1.48 //layer=m1 \
 //thickness=0.36 //x=2.96 //y=0 //x2=4.44 //y2=0
r191 (  6 34 ) resistor r=3.1 //w=0.17 //l=0.51 //layer=mcon //count=3 \
 //x=1.85 //y=0 //x2=1.85 //y2=0
r192 (  6 8 ) resistor r=0.460963 //w=0.301 //l=1.11 //layer=m1 \
 //thickness=0.36 //x=1.85 //y=0 //x2=2.96 //y2=0
r193 (  3 26 ) resistor r=3.1 //w=0.17 //l=0.51 //layer=mcon //count=3 \
 //x=0.74 //y=0 //x2=0.74 //y2=0
r194 (  3 6 ) resistor r=0.460963 //w=0.301 //l=1.11 //layer=m1 \
 //thickness=0.36 //x=0.74 //y=0 //x2=1.85 //y2=0
r195 (  1 13 ) resistor r=0.230482 //w=0.301 //l=0.555 //layer=m1 \
 //thickness=0.36 //x=4.995 //y=0 //x2=5.55 //y2=0
r196 (  1 10 ) resistor r=0.230482 //w=0.301 //l=0.555 //layer=m1 \
 //thickness=0.36 //x=4.995 //y=0 //x2=4.44 //y2=0
ends PM_VOTERN3X1\%GND

subckt PM_VOTERN3X1\%VDD ( 1 19 31 39 55 70 74 77 78 79 80 81 )
c106 ( 81 0 ) capacitor c=0.0476806f //x=2.405 //y=5.025
c107 ( 80 0 ) capacitor c=0.0241714f //x=1.525 //y=5.025
c108 ( 79 0 ) capacitor c=0.0467094f //x=0.655 //y=5.025
c109 ( 78 0 ) capacitor c=0.11314f //x=6.66 //y=7.4
c110 ( 77 0 ) capacitor c=0.121063f //x=3.33 //y=7.4
c111 ( 76 0 ) capacitor c=0.00591168f //x=2.55 //y=7.4
c112 ( 75 0 ) capacitor c=0.00591168f //x=1.67 //y=7.4
c113 ( 74 0 ) capacitor c=0.245236f //x=0.74 //y=7.4
c114 ( 70 0 ) capacitor c=0.336964f //x=9.25 //y=7.4
c115 ( 55 0 ) capacitor c=0.1275f //x=6.49 //y=7.4
c116 ( 49 0 ) capacitor c=0.0275781f //x=3.16 //y=7.4
c117 ( 39 0 ) capacitor c=0.0292737f //x=2.465 //y=7.4
c118 ( 31 0 ) capacitor c=0.0290962f //x=1.585 //y=7.4
c119 ( 19 0 ) capacitor c=0.382468f //x=9.25 //y=7.4
r120 (  68 70 ) resistor r=39.7983 //w=0.357 //l=1.11 //layer=li \
 //thickness=0.1 //x=8.14 //y=7.4 //x2=9.25 //y2=7.4
r121 (  66 68 ) resistor r=39.7983 //w=0.357 //l=1.11 //layer=li \
 //thickness=0.1 //x=7.03 //y=7.4 //x2=8.14 //y2=7.4
r122 (  64 78 ) resistor r=5.4201 //w=0.34 //l=0.17 //layer=li //thickness=0.1 \
 //x=6.83 //y=7.4 //x2=6.66 //y2=7.4
r123 (  64 66 ) resistor r=7.17087 //w=0.357 //l=0.2 //layer=li \
 //thickness=0.1 //x=6.83 //y=7.4 //x2=7.03 //y2=7.4
r124 (  58 60 ) resistor r=39.7983 //w=0.357 //l=1.11 //layer=li \
 //thickness=0.1 //x=4.44 //y=7.4 //x2=5.55 //y2=7.4
r125 (  56 77 ) resistor r=5.4201 //w=0.34 //l=0.17 //layer=li //thickness=0.1 \
 //x=3.5 //y=7.4 //x2=3.33 //y2=7.4
r126 (  56 58 ) resistor r=33.7031 //w=0.357 //l=0.94 //layer=li \
 //thickness=0.1 //x=3.5 //y=7.4 //x2=4.44 //y2=7.4
r127 (  55 78 ) resistor r=5.4201 //w=0.34 //l=0.17 //layer=li //thickness=0.1 \
 //x=6.49 //y=7.4 //x2=6.66 //y2=7.4
r128 (  55 60 ) resistor r=33.7031 //w=0.357 //l=0.94 //layer=li \
 //thickness=0.1 //x=6.49 //y=7.4 //x2=5.55 //y2=7.4
r129 (  50 76 ) resistor r=2.94794 //w=0.34 //l=0.085 //layer=li \
 //thickness=0.1 //x=2.635 //y=7.4 //x2=2.55 //y2=7.4
r130 (  50 52 ) resistor r=11.6527 //w=0.357 //l=0.325 //layer=li \
 //thickness=0.1 //x=2.635 //y=7.4 //x2=2.96 //y2=7.4
r131 (  49 77 ) resistor r=5.4201 //w=0.34 //l=0.17 //layer=li //thickness=0.1 \
 //x=3.16 //y=7.4 //x2=3.33 //y2=7.4
r132 (  49 52 ) resistor r=7.17087 //w=0.357 //l=0.2 //layer=li \
 //thickness=0.1 //x=3.16 //y=7.4 //x2=2.96 //y2=7.4
r133 (  43 76 ) resistor r=4.11603 //w=0.68 //l=0.17 //layer=li \
 //thickness=0.1 //x=2.55 //y=7.23 //x2=2.55 //y2=7.4
r134 (  43 81 ) resistor r=56.8128 //w=0.187 //l=0.83 //layer=li \
 //thickness=0.1 //x=2.55 //y=7.23 //x2=2.55 //y2=6.4
r135 (  40 75 ) resistor r=2.94794 //w=0.34 //l=0.085 //layer=li \
 //thickness=0.1 //x=1.755 //y=7.4 //x2=1.67 //y2=7.4
r136 (  40 42 ) resistor r=3.40616 //w=0.357 //l=0.095 //layer=li \
 //thickness=0.1 //x=1.755 //y=7.4 //x2=1.85 //y2=7.4
r137 (  39 76 ) resistor r=2.94794 //w=0.34 //l=0.085 //layer=li \
 //thickness=0.1 //x=2.465 //y=7.4 //x2=2.55 //y2=7.4
r138 (  39 42 ) resistor r=22.0504 //w=0.357 //l=0.615 //layer=li \
 //thickness=0.1 //x=2.465 //y=7.4 //x2=1.85 //y2=7.4
r139 (  33 75 ) resistor r=4.11603 //w=0.68 //l=0.17 //layer=li \
 //thickness=0.1 //x=1.67 //y=7.23 //x2=1.67 //y2=7.4
r140 (  33 80 ) resistor r=33.5401 //w=0.187 //l=0.49 //layer=li \
 //thickness=0.1 //x=1.67 //y=7.23 //x2=1.67 //y2=6.74
r141 (  32 74 ) resistor r=2.94794 //w=0.34 //l=0.085 //layer=li \
 //thickness=0.1 //x=0.875 //y=7.4 //x2=0.79 //y2=7.4
r142 (  31 75 ) resistor r=2.94794 //w=0.34 //l=0.085 //layer=li \
 //thickness=0.1 //x=1.585 //y=7.4 //x2=1.67 //y2=7.4
r143 (  31 32 ) resistor r=25.4566 //w=0.357 //l=0.71 //layer=li \
 //thickness=0.1 //x=1.585 //y=7.4 //x2=0.875 //y2=7.4
r144 (  25 74 ) resistor r=4.11603 //w=0.68 //l=0.17 //layer=li \
 //thickness=0.1 //x=0.79 //y=7.23 //x2=0.79 //y2=7.4
r145 (  25 79 ) resistor r=56.8128 //w=0.187 //l=0.83 //layer=li \
 //thickness=0.1 //x=0.79 //y=7.23 //x2=0.79 //y2=6.4
r146 (  19 70 ) resistor r=3.1 //w=0.17 //l=0.51 //layer=mcon //count=3 \
 //x=9.25 //y=7.4 //x2=9.25 //y2=7.4
r147 (  17 68 ) resistor r=3.1 //w=0.17 //l=0.51 //layer=mcon //count=3 \
 //x=8.14 //y=7.4 //x2=8.14 //y2=7.4
r148 (  17 19 ) resistor r=0.460963 //w=0.301 //l=1.11 //layer=m1 \
 //thickness=0.36 //x=8.14 //y=7.4 //x2=9.25 //y2=7.4
r149 (  15 66 ) resistor r=3.1 //w=0.17 //l=0.51 //layer=mcon //count=3 \
 //x=7.03 //y=7.4 //x2=7.03 //y2=7.4
r150 (  15 17 ) resistor r=0.460963 //w=0.301 //l=1.11 //layer=m1 \
 //thickness=0.36 //x=7.03 //y=7.4 //x2=8.14 //y2=7.4
r151 (  13 60 ) resistor r=3.1 //w=0.17 //l=0.51 //layer=mcon //count=3 \
 //x=5.55 //y=7.4 //x2=5.55 //y2=7.4
r152 (  13 15 ) resistor r=0.614618 //w=0.301 //l=1.48 //layer=m1 \
 //thickness=0.36 //x=5.55 //y=7.4 //x2=7.03 //y2=7.4
r153 (  10 58 ) resistor r=3.1 //w=0.17 //l=0.51 //layer=mcon //count=3 \
 //x=4.44 //y=7.4 //x2=4.44 //y2=7.4
r154 (  8 52 ) resistor r=3.1 //w=0.17 //l=0.51 //layer=mcon //count=3 \
 //x=2.96 //y=7.4 //x2=2.96 //y2=7.4
r155 (  8 10 ) resistor r=0.614618 //w=0.301 //l=1.48 //layer=m1 \
 //thickness=0.36 //x=2.96 //y=7.4 //x2=4.44 //y2=7.4
r156 (  6 42 ) resistor r=3.1 //w=0.17 //l=0.51 //layer=mcon //count=3 \
 //x=1.85 //y=7.4 //x2=1.85 //y2=7.4
r157 (  6 8 ) resistor r=0.460963 //w=0.301 //l=1.11 //layer=m1 \
 //thickness=0.36 //x=1.85 //y=7.4 //x2=2.96 //y2=7.4
r158 (  3 74 ) resistor r=3.1 //w=0.17 //l=0.51 //layer=mcon //count=3 \
 //x=0.74 //y=7.4 //x2=0.74 //y2=7.4
r159 (  3 6 ) resistor r=0.460963 //w=0.301 //l=1.11 //layer=m1 \
 //thickness=0.36 //x=0.74 //y=7.4 //x2=1.85 //y2=7.4
r160 (  1 13 ) resistor r=0.230482 //w=0.301 //l=0.555 //layer=m1 \
 //thickness=0.36 //x=4.995 //y=7.4 //x2=5.55 //y2=7.4
r161 (  1 10 ) resistor r=0.230482 //w=0.301 //l=0.555 //layer=m1 \
 //thickness=0.36 //x=4.995 //y=7.4 //x2=4.44 //y2=7.4
ends PM_VOTERN3X1\%VDD

subckt PM_VOTERN3X1\%noxref_3 ( 1 2 13 14 15 23 29 30 37 49 50 51 52 53 54 )
c91 ( 54 0 ) capacitor c=0.034295f //x=5.725 //y=5.025
c92 ( 53 0 ) capacitor c=0.0174957f //x=4.845 //y=5.025
c93 ( 51 0 ) capacitor c=0.0214849f //x=1.965 //y=5.025
c94 ( 50 0 ) capacitor c=0.0218033f //x=1.085 //y=5.025
c95 ( 49 0 ) capacitor c=0.00115294f //x=4.99 //y=6.91
c96 ( 37 0 ) capacitor c=0.0131338f //x=5.785 //y=6.91
c97 ( 30 0 ) capacitor c=0.00386507f //x=4.195 //y=6.91
c98 ( 29 0 ) capacitor c=0.0100992f //x=4.905 //y=6.91
c99 ( 23 0 ) capacitor c=0.0453878f //x=4.11 //y=5.21
c100 ( 15 0 ) capacitor c=0.00855201f //x=2.11 //y=5.295
c101 ( 14 0 ) capacitor c=0.00290434f //x=1.315 //y=5.21
c102 ( 13 0 ) capacitor c=0.0150963f //x=2.025 //y=5.21
c103 ( 2 0 ) capacitor c=0.0111402f //x=2.225 //y=5.21
c104 ( 1 0 ) capacitor c=0.0706872f //x=3.995 //y=5.21
r105 (  39 54 ) resistor r=5.81818 //w=0.187 //l=0.085 //layer=li \
 //thickness=0.1 //x=5.87 //y=6.825 //x2=5.87 //y2=6.74
r106 (  38 49 ) resistor r=5.4201 //w=0.17 //l=0.085 //layer=li \
 //thickness=0.1 //x=5.075 //y=6.91 //x2=4.99 //y2=6.91
r107 (  37 39 ) resistor r=7.15173 //w=0.17 //l=0.120208 //layer=li \
 //thickness=0.1 //x=5.785 //y=6.91 //x2=5.87 //y2=6.825
r108 (  37 38 ) resistor r=48.5989 //w=0.187 //l=0.71 //layer=li \
 //thickness=0.1 //x=5.785 //y=6.91 //x2=5.075 //y2=6.91
r109 (  31 49 ) resistor r=1.40859 //w=0.34 //l=0.085 //layer=li \
 //thickness=0.1 //x=4.99 //y=6.825 //x2=4.99 //y2=6.91
r110 (  31 53 ) resistor r=5.81818 //w=0.187 //l=0.085 //layer=li \
 //thickness=0.1 //x=4.99 //y=6.825 //x2=4.99 //y2=6.74
r111 (  29 49 ) resistor r=5.4201 //w=0.17 //l=0.085 //layer=li \
 //thickness=0.1 //x=4.905 //y=6.91 //x2=4.99 //y2=6.91
r112 (  29 30 ) resistor r=48.5989 //w=0.187 //l=0.71 //layer=li \
 //thickness=0.1 //x=4.905 //y=6.91 //x2=4.195 //y2=6.91
r113 (  23 52 ) resistor r=58.1818 //w=0.187 //l=0.85 //layer=li \
 //thickness=0.1 //x=4.11 //y=5.21 //x2=4.11 //y2=6.06
r114 (  21 30 ) resistor r=7.15173 //w=0.17 //l=0.120208 //layer=li \
 //thickness=0.1 //x=4.11 //y=6.825 //x2=4.195 //y2=6.91
r115 (  21 52 ) resistor r=5.81818 //w=0.187 //l=0.085 //layer=li \
 //thickness=0.1 //x=4.11 //y=6.825 //x2=4.11 //y2=6.74
r116 (  15 48 ) resistor r=3.57586 //w=0.17 //l=0.125 //layer=li \
 //thickness=0.1 //x=2.11 //y=5.295 //x2=2.11 //y2=5.17
r117 (  15 51 ) resistor r=52.3636 //w=0.187 //l=0.765 //layer=li \
 //thickness=0.1 //x=2.11 //y=5.295 //x2=2.11 //y2=6.06
r118 (  13 48 ) resistor r=3.57586 //w=0.17 //l=0.103078 //layer=li \
 //thickness=0.1 //x=2.025 //y=5.21 //x2=2.11 //y2=5.17
r119 (  13 14 ) resistor r=48.5989 //w=0.187 //l=0.71 //layer=li \
 //thickness=0.1 //x=2.025 //y=5.21 //x2=1.315 //y2=5.21
r120 (  7 14 ) resistor r=7.15173 //w=0.17 //l=0.120208 //layer=li \
 //thickness=0.1 //x=1.23 //y=5.295 //x2=1.315 //y2=5.21
r121 (  7 50 ) resistor r=29.0909 //w=0.187 //l=0.425 //layer=li \
 //thickness=0.1 //x=1.23 //y=5.295 //x2=1.23 //y2=5.72
r122 (  6 23 ) resistor r=9.3 //w=0.17 //l=0.17 //layer=mcon //count=1 \
 //x=4.11 //y=5.21 //x2=4.11 //y2=5.21
r123 (  4 48 ) resistor r=9.3 //w=0.17 //l=0.17 //layer=mcon //count=1 \
 //x=2.11 //y=5.21 //x2=2.11 //y2=5.21
r124 (  2 4 ) resistor r=0.0717383 //w=0.224 //l=0.115 //layer=m1 \
 //thickness=0.36 //x=2.225 //y=5.21 //x2=2.11 //y2=5.21
r125 (  1 6 ) resistor r=0.0717383 //w=0.224 //l=0.115 //layer=m1 \
 //thickness=0.36 //x=3.995 //y=5.21 //x2=4.11 //y2=5.21
r126 (  1 2 ) resistor r=1.68893 //w=0.131 //l=1.77 //layer=m1 \
 //thickness=0.36 //x=3.995 //y=5.21 //x2=2.225 //y2=5.21
ends PM_VOTERN3X1\%noxref_3

subckt PM_VOTERN3X1\%B ( 1 2 7 8 9 10 11 12 13 14 15 16 17 19 32 43 44 45 46 \
 47 48 49 50 51 52 56 58 61 62 63 64 68 69 70 71 75 77 83 84 86 99 )
c153 ( 99 0 ) capacitor c=0.0655948f //x=4.44 //y=4.705
c154 ( 86 0 ) capacitor c=0.0582862f //x=0.74 //y=2.08
c155 ( 84 0 ) capacitor c=0.0342409f //x=4.775 //y=1.21
c156 ( 83 0 ) capacitor c=0.0187384f //x=4.775 //y=0.865
c157 ( 77 0 ) capacitor c=0.0141797f //x=4.62 //y=1.365
c158 ( 75 0 ) capacitor c=0.0149844f //x=4.62 //y=0.71
c159 ( 71 0 ) capacitor c=0.10193f //x=4.245 //y=1.915
c160 ( 70 0 ) capacitor c=0.0225105f //x=4.245 //y=1.52
c161 ( 69 0 ) capacitor c=0.0234376f //x=4.245 //y=1.21
c162 ( 68 0 ) capacitor c=0.0199343f //x=4.245 //y=0.865
c163 ( 64 0 ) capacitor c=0.0318948f //x=1.445 //y=1.21
c164 ( 63 0 ) capacitor c=0.0187384f //x=1.445 //y=0.865
c165 ( 62 0 ) capacitor c=0.0607141f //x=1.085 //y=4.795
c166 ( 61 0 ) capacitor c=0.0292043f //x=1.375 //y=4.795
c167 ( 58 0 ) capacitor c=0.0157913f //x=1.29 //y=1.365
c168 ( 56 0 ) capacitor c=0.0149844f //x=1.29 //y=0.71
c169 ( 52 0 ) capacitor c=0.0302441f //x=0.915 //y=1.915
c170 ( 51 0 ) capacitor c=0.0238107f //x=0.915 //y=1.52
c171 ( 50 0 ) capacitor c=0.0234352f //x=0.915 //y=1.21
c172 ( 49 0 ) capacitor c=0.0199931f //x=0.915 //y=0.865
c173 ( 48 0 ) capacitor c=0.110336f //x=4.77 //y=6.025
c174 ( 47 0 ) capacitor c=0.154049f //x=4.33 //y=6.025
c175 ( 46 0 ) capacitor c=0.110003f //x=1.45 //y=6.025
c176 ( 45 0 ) capacitor c=0.15424f //x=1.01 //y=6.025
c177 ( 32 0 ) capacitor c=0.122411f //x=4.44 //y=2.08
c178 ( 19 0 ) capacitor c=0.12196f //x=0.74 //y=2.08
c179 ( 2 0 ) capacitor c=0.0208472f //x=0.855 //y=4.44
c180 ( 1 0 ) capacitor c=0.119494f //x=4.325 //y=4.44
r181 (  97 99 ) resistor r=22.7554 //w=0.233 //l=0.11 //layer=ply \
 //thickness=0.18 //x=4.33 //y=4.705 //x2=4.44 //y2=4.705
r182 (  84 101 ) resistor r=45.1352 //w=0.168 //l=0.173853 //layer=ply \
 //thickness=0.18 //x=4.775 //y=1.21 //x2=4.735 //y2=1.365
r183 (  83 100 ) resistor r=45.1352 //w=0.168 //l=0.173853 //layer=ply \
 //thickness=0.18 //x=4.775 //y=0.865 //x2=4.735 //y2=0.71
r184 (  83 84 ) resistor r=176.904 //w=0.094 //l=0.345 //layer=ply \
 //thickness=0.18 //x=4.775 //y=0.865 //x2=4.775 //y2=1.21
r185 (  80 99 ) resistor r=68.2661 //w=0.233 //l=0.404166 //layer=ply \
 //thickness=0.18 //x=4.77 //y=4.87 //x2=4.44 //y2=4.705
r186 (  78 96 ) resistor r=10.701 //w=0.21 //l=0.115 //layer=ply \
 //thickness=0.18 //x=4.4 //y=1.365 //x2=4.285 //y2=1.365
r187 (  77 101 ) resistor r=5.52526 //w=0.168 //l=0.115 //layer=ply \
 //thickness=0.18 //x=4.62 //y=1.365 //x2=4.735 //y2=1.365
r188 (  76 95 ) resistor r=5.52526 //w=0.168 //l=0.115 //layer=ply \
 //thickness=0.18 //x=4.4 //y=0.71 //x2=4.285 //y2=0.71
r189 (  75 100 ) resistor r=5.52526 //w=0.168 //l=0.115 //layer=ply \
 //thickness=0.18 //x=4.62 //y=0.71 //x2=4.735 //y2=0.71
r190 (  75 76 ) resistor r=112.809 //w=0.094 //l=0.22 //layer=ply \
 //thickness=0.18 //x=4.62 //y=0.71 //x2=4.4 //y2=0.71
r191 (  72 97 ) resistor r=13.0941 //w=0.233 //l=0.165 //layer=ply \
 //thickness=0.18 //x=4.33 //y=4.87 //x2=4.33 //y2=4.705
r192 (  71 94 ) resistor r=34.8111 //w=0.27 //l=0.264953 //layer=ply \
 //thickness=0.18 //x=4.245 //y=1.915 //x2=4.44 //y2=2.08
r193 (  70 96 ) resistor r=39.5823 //w=0.21 //l=0.173853 //layer=ply \
 //thickness=0.18 //x=4.245 //y=1.52 //x2=4.285 //y2=1.365
r194 (  70 71 ) resistor r=202.543 //w=0.094 //l=0.395 //layer=ply \
 //thickness=0.18 //x=4.245 //y=1.52 //x2=4.245 //y2=1.915
r195 (  69 96 ) resistor r=39.5823 //w=0.21 //l=0.173853 //layer=ply \
 //thickness=0.18 //x=4.245 //y=1.21 //x2=4.285 //y2=1.365
r196 (  68 95 ) resistor r=45.1352 //w=0.168 //l=0.173853 //layer=ply \
 //thickness=0.18 //x=4.245 //y=0.865 //x2=4.285 //y2=0.71
r197 (  68 69 ) resistor r=176.904 //w=0.094 //l=0.345 //layer=ply \
 //thickness=0.18 //x=4.245 //y=0.865 //x2=4.245 //y2=1.21
r198 (  64 92 ) resistor r=45.1352 //w=0.168 //l=0.173853 //layer=ply \
 //thickness=0.18 //x=1.445 //y=1.21 //x2=1.405 //y2=1.365
r199 (  63 91 ) resistor r=45.1352 //w=0.168 //l=0.173853 //layer=ply \
 //thickness=0.18 //x=1.445 //y=0.865 //x2=1.405 //y2=0.71
r200 (  63 64 ) resistor r=176.904 //w=0.094 //l=0.345 //layer=ply \
 //thickness=0.18 //x=1.445 //y=0.865 //x2=1.445 //y2=1.21
r201 (  61 65 ) resistor r=26.9307 //w=0.15 //l=0.106066 //layer=ply \
 //thickness=0.18 //x=1.375 //y=4.795 //x2=1.45 //y2=4.87
r202 (  61 62 ) resistor r=148.702 //w=0.094 //l=0.29 //layer=ply \
 //thickness=0.18 //x=1.375 //y=4.795 //x2=1.085 //y2=4.795
r203 (  59 90 ) resistor r=10.701 //w=0.21 //l=0.115 //layer=ply \
 //thickness=0.18 //x=1.07 //y=1.365 //x2=0.955 //y2=1.365
r204 (  58 92 ) resistor r=5.52526 //w=0.168 //l=0.115 //layer=ply \
 //thickness=0.18 //x=1.29 //y=1.365 //x2=1.405 //y2=1.365
r205 (  57 89 ) resistor r=5.52526 //w=0.168 //l=0.115 //layer=ply \
 //thickness=0.18 //x=1.07 //y=0.71 //x2=0.955 //y2=0.71
r206 (  56 91 ) resistor r=5.52526 //w=0.168 //l=0.115 //layer=ply \
 //thickness=0.18 //x=1.29 //y=0.71 //x2=1.405 //y2=0.71
r207 (  56 57 ) resistor r=112.809 //w=0.094 //l=0.22 //layer=ply \
 //thickness=0.18 //x=1.29 //y=0.71 //x2=1.07 //y2=0.71
r208 (  53 62 ) resistor r=22.1787 //w=0.252 //l=0.106066 //layer=ply \
 //thickness=0.18 //x=1.01 //y=4.87 //x2=1.085 //y2=4.795
r209 (  53 88 ) resistor r=51.6429 //w=0.252 //l=0.34271 //layer=ply \
 //thickness=0.18 //x=1.01 //y=4.87 //x2=0.74 //y2=4.705
r210 (  52 86 ) resistor r=30.4513 //w=0.277 //l=0.243926 //layer=ply \
 //thickness=0.18 //x=0.915 //y=1.915 //x2=0.74 //y2=2.08
r211 (  51 90 ) resistor r=39.5823 //w=0.21 //l=0.173853 //layer=ply \
 //thickness=0.18 //x=0.915 //y=1.52 //x2=0.955 //y2=1.365
r212 (  51 52 ) resistor r=202.543 //w=0.094 //l=0.395 //layer=ply \
 //thickness=0.18 //x=0.915 //y=1.52 //x2=0.915 //y2=1.915
r213 (  50 90 ) resistor r=39.5823 //w=0.21 //l=0.173853 //layer=ply \
 //thickness=0.18 //x=0.915 //y=1.21 //x2=0.955 //y2=1.365
r214 (  49 89 ) resistor r=45.1352 //w=0.168 //l=0.173853 //layer=ply \
 //thickness=0.18 //x=0.915 //y=0.865 //x2=0.955 //y2=0.71
r215 (  49 50 ) resistor r=176.904 //w=0.094 //l=0.345 //layer=ply \
 //thickness=0.18 //x=0.915 //y=0.865 //x2=0.915 //y2=1.21
r216 (  48 80 ) resistor r=592.245 //w=0.094 //l=1.155 //layer=ply \
 //thickness=0.18 //x=4.77 //y=6.025 //x2=4.77 //y2=4.87
r217 (  47 72 ) resistor r=592.245 //w=0.094 //l=1.155 //layer=ply \
 //thickness=0.18 //x=4.33 //y=6.025 //x2=4.33 //y2=4.87
r218 (  46 65 ) resistor r=592.245 //w=0.094 //l=1.155 //layer=ply \
 //thickness=0.18 //x=1.45 //y=6.025 //x2=1.45 //y2=4.87
r219 (  45 53 ) resistor r=592.245 //w=0.094 //l=1.155 //layer=ply \
 //thickness=0.18 //x=1.01 //y=6.025 //x2=1.01 //y2=4.87
r220 (  44 77 ) resistor r=56.4043 //w=0.094 //l=0.11 //layer=ply \
 //thickness=0.18 //x=4.51 //y=1.365 //x2=4.62 //y2=1.365
r221 (  44 78 ) resistor r=56.4043 //w=0.094 //l=0.11 //layer=ply \
 //thickness=0.18 //x=4.51 //y=1.365 //x2=4.4 //y2=1.365
r222 (  43 58 ) resistor r=56.4043 //w=0.094 //l=0.11 //layer=ply \
 //thickness=0.18 //x=1.18 //y=1.365 //x2=1.29 //y2=1.365
r223 (  43 59 ) resistor r=56.4043 //w=0.094 //l=0.11 //layer=ply \
 //thickness=0.18 //x=1.18 //y=1.365 //x2=1.07 //y2=1.365
r224 (  41 99 ) resistor r=152 //w=0.17 //l=0.17 //layer=licon //count=1 \
 //x=4.44 //y=4.705 //x2=4.44 //y2=4.705
r225 (  32 94 ) resistor r=152 //w=0.17 //l=0.17 //layer=licon //count=1 \
 //x=4.44 //y=2.08 //x2=4.44 //y2=2.08
r226 (  29 88 ) resistor r=152 //w=0.17 //l=0.17 //layer=licon //count=1 \
 //x=0.74 //y=4.705 //x2=0.74 //y2=4.705
r227 (  19 86 ) resistor r=152 //w=0.17 //l=0.17 //layer=licon //count=1 \
 //x=0.74 //y=2.08 //x2=0.74 //y2=2.08
r228 (  17 41 ) resistor r=18.139 //w=0.187 //l=0.265 //layer=li \
 //thickness=0.1 //x=4.44 //y=4.44 //x2=4.44 //y2=4.705
r229 (  16 17 ) resistor r=50.6524 //w=0.187 //l=0.74 //layer=li \
 //thickness=0.1 //x=4.44 //y=3.7 //x2=4.44 //y2=4.44
r230 (  15 16 ) resistor r=25.3262 //w=0.187 //l=0.37 //layer=li \
 //thickness=0.1 //x=4.44 //y=3.33 //x2=4.44 //y2=3.7
r231 (  14 15 ) resistor r=25.3262 //w=0.187 //l=0.37 //layer=li \
 //thickness=0.1 //x=4.44 //y=2.96 //x2=4.44 //y2=3.33
r232 (  13 14 ) resistor r=25.3262 //w=0.187 //l=0.37 //layer=li \
 //thickness=0.1 //x=4.44 //y=2.59 //x2=4.44 //y2=2.96
r233 (  13 32 ) resistor r=34.9091 //w=0.187 //l=0.51 //layer=li \
 //thickness=0.1 //x=4.44 //y=2.59 //x2=4.44 //y2=2.08
r234 (  12 29 ) resistor r=18.139 //w=0.187 //l=0.265 //layer=li \
 //thickness=0.1 //x=0.74 //y=4.44 //x2=0.74 //y2=4.705
r235 (  11 12 ) resistor r=25.3262 //w=0.187 //l=0.37 //layer=li \
 //thickness=0.1 //x=0.74 //y=4.07 //x2=0.74 //y2=4.44
r236 (  10 11 ) resistor r=25.3262 //w=0.187 //l=0.37 //layer=li \
 //thickness=0.1 //x=0.74 //y=3.7 //x2=0.74 //y2=4.07
r237 (  9 10 ) resistor r=25.3262 //w=0.187 //l=0.37 //layer=li \
 //thickness=0.1 //x=0.74 //y=3.33 //x2=0.74 //y2=3.7
r238 (  8 9 ) resistor r=25.3262 //w=0.187 //l=0.37 //layer=li //thickness=0.1 \
 //x=0.74 //y=2.96 //x2=0.74 //y2=3.33
r239 (  7 8 ) resistor r=25.3262 //w=0.187 //l=0.37 //layer=li //thickness=0.1 \
 //x=0.74 //y=2.59 //x2=0.74 //y2=2.96
r240 (  7 19 ) resistor r=34.9091 //w=0.187 //l=0.51 //layer=li \
 //thickness=0.1 //x=0.74 //y=2.59 //x2=0.74 //y2=2.08
r241 (  6 17 ) resistor r=9.3 //w=0.17 //l=0.17 //layer=mcon //count=1 \
 //x=4.44 //y=4.44 //x2=4.44 //y2=4.44
r242 (  4 12 ) resistor r=9.3 //w=0.17 //l=0.17 //layer=mcon //count=1 \
 //x=0.74 //y=4.44 //x2=0.74 //y2=4.44
r243 (  2 4 ) resistor r=0.0717383 //w=0.224 //l=0.115 //layer=m1 \
 //thickness=0.36 //x=0.855 //y=4.44 //x2=0.74 //y2=4.44
r244 (  1 6 ) resistor r=0.0717383 //w=0.224 //l=0.115 //layer=m1 \
 //thickness=0.36 //x=4.325 //y=4.44 //x2=4.44 //y2=4.44
r245 (  1 2 ) resistor r=3.31107 //w=0.131 //l=3.47 //layer=m1 \
 //thickness=0.36 //x=4.325 //y=4.44 //x2=0.855 //y2=4.44
ends PM_VOTERN3X1\%B

subckt PM_VOTERN3X1\%C ( 1 2 7 8 9 10 11 12 13 14 15 16 18 30 41 42 43 44 45 \
 46 50 51 52 53 54 56 59 62 63 64 65 66 67 68 69 73 75 78 79 80 81 94 )
c165 ( 94 0 ) capacitor c=0.0583848f //x=7.4 //y=2.08
c166 ( 81 0 ) capacitor c=0.0316774f //x=8.105 //y=1.21
c167 ( 80 0 ) capacitor c=0.0187384f //x=8.105 //y=0.865
c168 ( 79 0 ) capacitor c=0.0590362f //x=7.745 //y=4.795
c169 ( 78 0 ) capacitor c=0.0296075f //x=8.035 //y=4.795
c170 ( 75 0 ) capacitor c=0.0157912f //x=7.95 //y=1.365
c171 ( 73 0 ) capacitor c=0.0149844f //x=7.95 //y=0.71
c172 ( 69 0 ) capacitor c=0.0302441f //x=7.575 //y=1.915
c173 ( 68 0 ) capacitor c=0.0234157f //x=7.575 //y=1.52
c174 ( 67 0 ) capacitor c=0.0234376f //x=7.575 //y=1.21
c175 ( 66 0 ) capacitor c=0.0199931f //x=7.575 //y=0.865
c176 ( 65 0 ) capacitor c=0.0970773f //x=5.745 //y=1.915
c177 ( 64 0 ) capacitor c=0.0249466f //x=5.745 //y=1.56
c178 ( 63 0 ) capacitor c=0.0234397f //x=5.745 //y=1.25
c179 ( 62 0 ) capacitor c=0.0193195f //x=5.745 //y=0.905
c180 ( 59 0 ) capacitor c=0.0631944f //x=5.65 //y=4.87
c181 ( 56 0 ) capacitor c=0.0187941f //x=5.59 //y=1.405
c182 ( 54 0 ) capacitor c=0.0157803f //x=5.59 //y=0.75
c183 ( 53 0 ) capacitor c=0.010629f //x=5.285 //y=4.795
c184 ( 52 0 ) capacitor c=0.0194269f //x=5.575 //y=4.795
c185 ( 51 0 ) capacitor c=0.0365717f //x=5.215 //y=1.25
c186 ( 50 0 ) capacitor c=0.0175988f //x=5.215 //y=0.905
c187 ( 46 0 ) capacitor c=0.110622f //x=8.11 //y=6.025
c188 ( 45 0 ) capacitor c=0.154068f //x=7.67 //y=6.025
c189 ( 44 0 ) capacitor c=0.154291f //x=5.65 //y=6.025
c190 ( 43 0 ) capacitor c=0.110404f //x=5.21 //y=6.025
c191 ( 30 0 ) capacitor c=0.100999f //x=7.4 //y=2.08
c192 ( 18 0 ) capacitor c=0.109253f //x=5.92 //y=2.08
c193 ( 2 0 ) capacitor c=0.011507f //x=6.035 //y=2.08
c194 ( 1 0 ) capacitor c=0.0463146f //x=7.285 //y=2.08
r195 (  81 100 ) resistor r=45.1352 //w=0.168 //l=0.173853 //layer=ply \
 //thickness=0.18 //x=8.105 //y=1.21 //x2=8.065 //y2=1.365
r196 (  80 99 ) resistor r=45.1352 //w=0.168 //l=0.173853 //layer=ply \
 //thickness=0.18 //x=8.105 //y=0.865 //x2=8.065 //y2=0.71
r197 (  80 81 ) resistor r=176.904 //w=0.094 //l=0.345 //layer=ply \
 //thickness=0.18 //x=8.105 //y=0.865 //x2=8.105 //y2=1.21
r198 (  78 82 ) resistor r=26.9307 //w=0.15 //l=0.106066 //layer=ply \
 //thickness=0.18 //x=8.035 //y=4.795 //x2=8.11 //y2=4.87
r199 (  78 79 ) resistor r=148.702 //w=0.094 //l=0.29 //layer=ply \
 //thickness=0.18 //x=8.035 //y=4.795 //x2=7.745 //y2=4.795
r200 (  76 98 ) resistor r=10.701 //w=0.21 //l=0.115 //layer=ply \
 //thickness=0.18 //x=7.73 //y=1.365 //x2=7.615 //y2=1.365
r201 (  75 100 ) resistor r=5.52526 //w=0.168 //l=0.115 //layer=ply \
 //thickness=0.18 //x=7.95 //y=1.365 //x2=8.065 //y2=1.365
r202 (  74 97 ) resistor r=5.52526 //w=0.168 //l=0.115 //layer=ply \
 //thickness=0.18 //x=7.73 //y=0.71 //x2=7.615 //y2=0.71
r203 (  73 99 ) resistor r=5.52526 //w=0.168 //l=0.115 //layer=ply \
 //thickness=0.18 //x=7.95 //y=0.71 //x2=8.065 //y2=0.71
r204 (  73 74 ) resistor r=112.809 //w=0.094 //l=0.22 //layer=ply \
 //thickness=0.18 //x=7.95 //y=0.71 //x2=7.73 //y2=0.71
r205 (  70 79 ) resistor r=22.1787 //w=0.252 //l=0.106066 //layer=ply \
 //thickness=0.18 //x=7.67 //y=4.87 //x2=7.745 //y2=4.795
r206 (  70 96 ) resistor r=51.6429 //w=0.252 //l=0.34271 //layer=ply \
 //thickness=0.18 //x=7.67 //y=4.87 //x2=7.4 //y2=4.705
r207 (  69 94 ) resistor r=30.4513 //w=0.277 //l=0.243926 //layer=ply \
 //thickness=0.18 //x=7.575 //y=1.915 //x2=7.4 //y2=2.08
r208 (  68 98 ) resistor r=39.5823 //w=0.21 //l=0.173853 //layer=ply \
 //thickness=0.18 //x=7.575 //y=1.52 //x2=7.615 //y2=1.365
r209 (  68 69 ) resistor r=202.543 //w=0.094 //l=0.395 //layer=ply \
 //thickness=0.18 //x=7.575 //y=1.52 //x2=7.575 //y2=1.915
r210 (  67 98 ) resistor r=39.5823 //w=0.21 //l=0.173853 //layer=ply \
 //thickness=0.18 //x=7.575 //y=1.21 //x2=7.615 //y2=1.365
r211 (  66 97 ) resistor r=45.1352 //w=0.168 //l=0.173853 //layer=ply \
 //thickness=0.18 //x=7.575 //y=0.865 //x2=7.615 //y2=0.71
r212 (  66 67 ) resistor r=176.904 //w=0.094 //l=0.345 //layer=ply \
 //thickness=0.18 //x=7.575 //y=0.865 //x2=7.575 //y2=1.21
r213 (  65 90 ) resistor r=30.4513 //w=0.277 //l=0.243926 //layer=ply \
 //thickness=0.18 //x=5.745 //y=1.915 //x2=5.92 //y2=2.08
r214 (  64 88 ) resistor r=39.5823 //w=0.21 //l=0.173853 //layer=ply \
 //thickness=0.18 //x=5.745 //y=1.56 //x2=5.705 //y2=1.405
r215 (  64 65 ) resistor r=182.032 //w=0.094 //l=0.355 //layer=ply \
 //thickness=0.18 //x=5.745 //y=1.56 //x2=5.745 //y2=1.915
r216 (  63 88 ) resistor r=39.5823 //w=0.21 //l=0.173853 //layer=ply \