// File: votern3x1_pcell.spi.VOTERN3X1_PCELL.pxi
// Created: Tue Oct 15 16:01:02 2024
// 
simulator lang=spectre
x_PM_VOTERN3X1_PCELL\%noxref_1 ( N_noxref_1_c_5_p N_noxref_1_c_10_p \
 N_noxref_1_c_2_p N_noxref_1_c_17_p N_noxref_1_c_20_p N_noxref_1_c_26_p \
 N_noxref_1_c_36_p N_noxref_1_c_1_p N_noxref_1_c_3_p N_noxref_1_c_4_p \
 N_noxref_1_M0_noxref_d N_noxref_1_M2_noxref_d N_noxref_1_M4_noxref_d )  \
 PM_VOTERN3X1_PCELL\%noxref_1
x_PM_VOTERN3X1_PCELL\%noxref_2 ( N_noxref_2_c_159_p N_noxref_2_c_148_p \
 N_noxref_2_c_149_p N_noxref_2_c_160_p N_noxref_2_c_139_n N_noxref_2_c_140_n \
 N_noxref_2_c_141_n N_noxref_2_c_142_n N_noxref_2_M6_noxref_s \
 N_noxref_2_M7_noxref_d N_noxref_2_M9_noxref_d )  PM_VOTERN3X1_PCELL\%noxref_2
x_PM_VOTERN3X1_PCELL\%noxref_3 ( N_noxref_3_c_245_n N_noxref_3_c_247_n \
 N_noxref_3_c_250_n N_noxref_3_c_253_n N_noxref_3_c_255_n N_noxref_3_c_258_n \
 N_noxref_3_c_260_n N_noxref_3_c_261_n N_noxref_3_c_264_n N_noxref_3_c_265_n \
 N_noxref_3_M6_noxref_d N_noxref_3_M8_noxref_d N_noxref_3_M10_noxref_s \
 N_noxref_3_M11_noxref_d N_noxref_3_M13_noxref_d )  PM_VOTERN3X1_PCELL\%noxref_3
x_PM_VOTERN3X1_PCELL\%noxref_4 ( N_noxref_4_c_361_n N_noxref_4_c_364_n \
 N_noxref_4_c_336_n N_noxref_4_c_339_n N_noxref_4_M0_noxref_g \
 N_noxref_4_M2_noxref_g N_noxref_4_M6_noxref_g N_noxref_4_M7_noxref_g \
 N_noxref_4_M10_noxref_g N_noxref_4_M11_noxref_g N_noxref_4_c_341_n \
 N_noxref_4_c_343_n N_noxref_4_c_344_n N_noxref_4_c_345_n N_noxref_4_c_346_n \
 N_noxref_4_c_347_n N_noxref_4_c_397_n N_noxref_4_c_379_n N_noxref_4_c_348_n \
 N_noxref_4_c_350_n N_noxref_4_c_351_n N_noxref_4_c_353_n N_noxref_4_c_410_p \
 N_noxref_4_c_354_n N_noxref_4_c_355_n N_noxref_4_c_356_n N_noxref_4_c_357_n \
 N_noxref_4_c_359_n N_noxref_4_c_360_n N_noxref_4_c_381_n )  \
 PM_VOTERN3X1_PCELL\%noxref_4
x_PM_VOTERN3X1_PCELL\%noxref_5 ( N_noxref_5_c_489_n N_noxref_5_c_490_n \
 N_noxref_5_c_491_n N_noxref_5_c_493_n N_noxref_5_M3_noxref_g \
 N_noxref_5_M4_noxref_g N_noxref_5_M12_noxref_g N_noxref_5_M13_noxref_g \
 N_noxref_5_M14_noxref_g N_noxref_5_M15_noxref_g N_noxref_5_c_531_n \
 N_noxref_5_c_534_n N_noxref_5_c_556_p N_noxref_5_c_536_n N_noxref_5_c_612_p \
 N_noxref_5_c_613_p N_noxref_5_c_514_n N_noxref_5_c_540_n N_noxref_5_c_541_n \
 N_noxref_5_c_542_n N_noxref_5_c_494_n N_noxref_5_c_495_n N_noxref_5_c_497_n \
 N_noxref_5_c_584_p N_noxref_5_c_498_n N_noxref_5_c_499_n N_noxref_5_c_500_n \
 N_noxref_5_c_575_p N_noxref_5_c_515_n N_noxref_5_c_501_n N_noxref_5_c_503_n \
 N_noxref_5_c_504_n )  PM_VOTERN3X1_PCELL\%noxref_5
x_PM_VOTERN3X1_PCELL\%noxref_6 ( N_noxref_6_c_654_n N_noxref_6_c_655_n \
 N_noxref_6_c_673_n N_noxref_6_c_656_n N_noxref_6_c_657_n N_noxref_6_c_658_n \
 N_noxref_6_c_660_n N_noxref_6_c_661_n N_noxref_6_c_663_n N_noxref_6_c_664_n \
 N_noxref_6_M10_noxref_d N_noxref_6_M12_noxref_d N_noxref_6_M14_noxref_s \
 N_noxref_6_M15_noxref_d N_noxref_6_M17_noxref_d )  PM_VOTERN3X1_PCELL\%noxref_6
x_PM_VOTERN3X1_PCELL\%noxref_7 ( N_noxref_7_c_740_n N_noxref_7_c_749_n \
 N_noxref_7_c_750_n N_noxref_7_c_742_n N_noxref_7_c_744_n N_noxref_7_c_820_n \
 N_noxref_7_M1_noxref_g N_noxref_7_M5_noxref_g N_noxref_7_M8_noxref_g \
 N_noxref_7_M9_noxref_g N_noxref_7_M16_noxref_g N_noxref_7_M17_noxref_g \
 N_noxref_7_c_792_n N_noxref_7_c_795_n N_noxref_7_c_797_n N_noxref_7_c_761_n \
 N_noxref_7_c_856_p N_noxref_7_c_857_p N_noxref_7_c_801_n N_noxref_7_c_802_n \
 N_noxref_7_c_825_n N_noxref_7_c_828_n N_noxref_7_c_829_n N_noxref_7_c_879_p \
 N_noxref_7_c_863_p N_noxref_7_c_832_n N_noxref_7_c_833_n N_noxref_7_c_834_n \
 N_noxref_7_c_746_n N_noxref_7_c_910_p N_noxref_7_c_762_n N_noxref_7_c_835_n \
 N_noxref_7_c_875_p N_noxref_7_c_838_n )  PM_VOTERN3X1_PCELL\%noxref_7
x_PM_VOTERN3X1_PCELL\%noxref_8 ( N_noxref_8_c_920_n N_noxref_8_c_927_n \
 N_noxref_8_c_928_n N_noxref_8_c_934_n N_noxref_8_c_978_n N_noxref_8_c_947_n \
 N_noxref_8_c_948_n N_noxref_8_c_935_n N_noxref_8_c_1029_n N_noxref_8_c_936_n \
 N_noxref_8_c_1037_n N_noxref_8_M1_noxref_d N_noxref_8_M3_noxref_d \
 N_noxref_8_M5_noxref_d N_noxref_8_M14_noxref_d N_noxref_8_M16_noxref_d )  \
 PM_VOTERN3X1_PCELL\%noxref_8
x_PM_VOTERN3X1_PCELL\%noxref_9 ( N_noxref_9_c_1100_n N_noxref_9_c_1078_n \
 N_noxref_9_c_1082_n N_noxref_9_c_1086_n N_noxref_9_c_1087_n \
 N_noxref_9_c_1090_n N_noxref_9_M0_noxref_s )  PM_VOTERN3X1_PCELL\%noxref_9
x_PM_VOTERN3X1_PCELL\%noxref_10 ( N_noxref_10_c_1153_n N_noxref_10_c_1132_n \
 N_noxref_10_c_1135_n N_noxref_10_c_1139_n N_noxref_10_c_1140_n \
 N_noxref_10_c_1143_n N_noxref_10_M2_noxref_s )  PM_VOTERN3X1_PCELL\%noxref_10
x_PM_VOTERN3X1_PCELL\%noxref_11 ( N_noxref_11_c_1204_n N_noxref_11_c_1188_n \
 N_noxref_11_c_1191_n N_noxref_11_c_1194_n N_noxref_11_c_1195_n \
 N_noxref_11_c_1197_n N_noxref_11_M4_noxref_s )  PM_VOTERN3X1_PCELL\%noxref_11
cc_1 ( N_noxref_1_c_1_p N_noxref_2_c_139_n ) capacitor c=0.00989031f //x=9.25 \
 //y=0 //x2=9.25 //y2=7.4
cc_2 ( N_noxref_1_c_2_p N_noxref_2_c_140_n ) capacitor c=0.00989031f //x=0.74 \
 //y=0 //x2=0.74 //y2=7.4
cc_3 ( N_noxref_1_c_3_p N_noxref_2_c_141_n ) capacitor c=0.0052832f //x=3.33 \
 //y=0 //x2=3.33 //y2=7.4
cc_4 ( N_noxref_1_c_4_p N_noxref_2_c_142_n ) capacitor c=0.0052832f //x=6.66 \
 //y=0 //x2=6.66 //y2=7.4
cc_5 ( N_noxref_1_c_5_p N_noxref_4_c_336_n ) capacitor c=3.78331e-19 //x=9.25 \
 //y=0 //x2=0.74 //y2=2.08
cc_6 ( N_noxref_1_c_2_p N_noxref_4_c_336_n ) capacitor c=0.0295726f //x=0.74 \
 //y=0 //x2=0.74 //y2=2.08
cc_7 ( N_noxref_1_c_3_p N_noxref_4_c_336_n ) capacitor c=3.10504e-19 //x=3.33 \
 //y=0 //x2=0.74 //y2=2.08
cc_8 ( N_noxref_1_c_3_p N_noxref_4_c_339_n ) capacitor c=0.0179404f //x=3.33 \
 //y=0 //x2=4.44 //y2=2.08
cc_9 ( N_noxref_1_c_4_p N_noxref_4_c_339_n ) capacitor c=7.87427e-19 //x=6.66 \
 //y=0 //x2=4.44 //y2=2.08
cc_10 ( N_noxref_1_c_10_p N_noxref_4_c_341_n ) capacitor c=0.0013864f \
 //x=1.095 //y=0 //x2=0.915 //y2=0.865
cc_11 ( N_noxref_1_M0_noxref_d N_noxref_4_c_341_n ) capacitor c=0.00220047f \
 //x=0.99 //y=0.865 //x2=0.915 //y2=0.865
cc_12 ( N_noxref_1_M0_noxref_d N_noxref_4_c_343_n ) capacitor c=0.00255985f \
 //x=0.99 //y=0.865 //x2=0.915 //y2=1.21
cc_13 ( N_noxref_1_c_2_p N_noxref_4_c_344_n ) capacitor c=0.00264481f //x=0.74 \
 //y=0 //x2=0.915 //y2=1.52
cc_14 ( N_noxref_1_c_2_p N_noxref_4_c_345_n ) capacitor c=0.00440632f //x=0.74 \
 //y=0 //x2=0.915 //y2=1.915
cc_15 ( N_noxref_1_M0_noxref_d N_noxref_4_c_346_n ) capacitor c=0.0131326f \
 //x=0.99 //y=0.865 //x2=1.29 //y2=0.71
cc_16 ( N_noxref_1_M0_noxref_d N_noxref_4_c_347_n ) capacitor c=0.00193127f \
 //x=0.99 //y=0.865 //x2=1.29 //y2=1.365
cc_17 ( N_noxref_1_c_17_p N_noxref_4_c_348_n ) capacitor c=0.00130622f \
 //x=3.16 //y=0 //x2=1.445 //y2=0.865
cc_18 ( N_noxref_1_M0_noxref_d N_noxref_4_c_348_n ) capacitor c=0.00257848f \
 //x=0.99 //y=0.865 //x2=1.445 //y2=0.865
cc_19 ( N_noxref_1_M0_noxref_d N_noxref_4_c_350_n ) capacitor c=0.00255985f \
 //x=0.99 //y=0.865 //x2=1.445 //y2=1.21
cc_20 ( N_noxref_1_c_20_p N_noxref_4_c_351_n ) capacitor c=0.00135046f \
 //x=4.425 //y=0 //x2=4.245 //y2=0.865
cc_21 ( N_noxref_1_M2_noxref_d N_noxref_4_c_351_n ) capacitor c=0.00220047f \
 //x=4.32 //y=0.865 //x2=4.245 //y2=0.865
cc_22 ( N_noxref_1_M2_noxref_d N_noxref_4_c_353_n ) capacitor c=0.00272336f \
 //x=4.32 //y=0.865 //x2=4.245 //y2=1.21
cc_23 ( N_noxref_1_c_3_p N_noxref_4_c_354_n ) capacitor c=0.0114904f //x=3.33 \
 //y=0 //x2=4.245 //y2=1.915
cc_24 ( N_noxref_1_M2_noxref_d N_noxref_4_c_355_n ) capacitor c=0.0131326f \
 //x=4.32 //y=0.865 //x2=4.62 //y2=0.71
cc_25 ( N_noxref_1_M2_noxref_d N_noxref_4_c_356_n ) capacitor c=0.00167494f \
 //x=4.32 //y=0.865 //x2=4.62 //y2=1.365
cc_26 ( N_noxref_1_c_26_p N_noxref_4_c_357_n ) capacitor c=0.00130622f \
 //x=6.49 //y=0 //x2=4.775 //y2=0.865
cc_27 ( N_noxref_1_M2_noxref_d N_noxref_4_c_357_n ) capacitor c=0.00257848f \
 //x=4.32 //y=0.865 //x2=4.775 //y2=0.865
cc_28 ( N_noxref_1_M2_noxref_d N_noxref_4_c_359_n ) capacitor c=0.00272336f \
 //x=4.32 //y=0.865 //x2=4.775 //y2=1.21
cc_29 ( N_noxref_1_c_2_p N_noxref_4_c_360_n ) capacitor c=0.01092f //x=0.74 \
 //y=0 //x2=0.74 //y2=2.08
cc_30 ( N_noxref_1_c_4_p N_noxref_5_c_489_n ) capacitor c=0.0396311f //x=6.66 \
 //y=0 //x2=7.285 //y2=2.08
cc_31 ( N_noxref_1_c_4_p N_noxref_5_c_490_n ) capacitor c=0.00128384f //x=6.66 \
 //y=0 //x2=6.035 //y2=2.08
cc_32 ( N_noxref_1_c_3_p N_noxref_5_c_491_n ) capacitor c=7.01065e-19 //x=3.33 \
 //y=0 //x2=5.92 //y2=2.08
cc_33 ( N_noxref_1_c_4_p N_noxref_5_c_491_n ) capacitor c=0.0266762f //x=6.66 \
 //y=0 //x2=5.92 //y2=2.08
cc_34 ( N_noxref_1_c_4_p N_noxref_5_c_493_n ) capacitor c=0.0266762f //x=6.66 \
 //y=0 //x2=7.4 //y2=2.08
cc_35 ( N_noxref_1_c_4_p N_noxref_5_c_494_n ) capacitor c=0.0103285f //x=6.66 \
 //y=0 //x2=5.745 //y2=1.915
cc_36 ( N_noxref_1_c_36_p N_noxref_5_c_495_n ) capacitor c=0.0013864f \
 //x=7.755 //y=0 //x2=7.575 //y2=0.865
cc_37 ( N_noxref_1_M4_noxref_d N_noxref_5_c_495_n ) capacitor c=0.00220047f \
 //x=7.65 //y=0.865 //x2=7.575 //y2=0.865
cc_38 ( N_noxref_1_M4_noxref_d N_noxref_5_c_497_n ) capacitor c=0.00272336f \
 //x=7.65 //y=0.865 //x2=7.575 //y2=1.21
cc_39 ( N_noxref_1_c_4_p N_noxref_5_c_498_n ) capacitor c=0.00369763f //x=6.66 \
 //y=0 //x2=7.575 //y2=1.915
cc_40 ( N_noxref_1_M4_noxref_d N_noxref_5_c_499_n ) capacitor c=0.0131326f \
 //x=7.65 //y=0.865 //x2=7.95 //y2=0.71
cc_41 ( N_noxref_1_M4_noxref_d N_noxref_5_c_500_n ) capacitor c=0.00167494f \
 //x=7.65 //y=0.865 //x2=7.95 //y2=1.365
cc_42 ( N_noxref_1_c_1_p N_noxref_5_c_501_n ) capacitor c=0.00130622f //x=9.25 \
 //y=0 //x2=8.105 //y2=0.865
cc_43 ( N_noxref_1_M4_noxref_d N_noxref_5_c_501_n ) capacitor c=0.00257848f \
 //x=7.65 //y=0.865 //x2=8.105 //y2=0.865
cc_44 ( N_noxref_1_M4_noxref_d N_noxref_5_c_503_n ) capacitor c=0.00272336f \
 //x=7.65 //y=0.865 //x2=8.105 //y2=1.21
cc_45 ( N_noxref_1_c_4_p N_noxref_5_c_504_n ) capacitor c=0.00662863f //x=6.66 \
 //y=0 //x2=7.4 //y2=2.08
cc_46 ( N_noxref_1_c_3_p N_noxref_7_c_740_n ) capacitor c=0.0036147f //x=3.33 \
 //y=0 //x2=8.395 //y2=4.07
cc_47 ( N_noxref_1_c_4_p N_noxref_7_c_740_n ) capacitor c=0.00281233f //x=6.66 \
 //y=0 //x2=8.395 //y2=4.07
cc_48 ( N_noxref_1_c_2_p N_noxref_7_c_742_n ) capacitor c=0.00123238f //x=0.74 \
 //y=0 //x2=1.85 //y2=2.08
cc_49 ( N_noxref_1_c_3_p N_noxref_7_c_742_n ) capacitor c=0.0125771f //x=3.33 \
 //y=0 //x2=1.85 //y2=2.08
cc_50 ( N_noxref_1_c_1_p N_noxref_7_c_744_n ) capacitor c=9.53263e-19 //x=9.25 \
 //y=0 //x2=8.51 //y2=2.08
cc_51 ( N_noxref_1_c_4_p N_noxref_7_c_744_n ) capacitor c=8.50308e-19 //x=6.66 \
 //y=0 //x2=8.51 //y2=2.08
cc_52 ( N_noxref_1_c_3_p N_noxref_7_c_746_n ) capacitor c=2.63786e-19 //x=3.33 \
 //y=0 //x2=1.85 //y2=2.08
cc_53 ( N_noxref_1_c_5_p N_noxref_8_c_920_n ) capacitor c=0.0696665f //x=9.25 \
 //y=0 //x2=5.365 //y2=1.18
cc_54 ( N_noxref_1_c_17_p N_noxref_8_c_920_n ) capacitor c=0.0081414f //x=3.16 \
 //y=0 //x2=5.365 //y2=1.18
cc_55 ( N_noxref_1_c_20_p N_noxref_8_c_920_n ) capacitor c=0.0101988f \
 //x=4.425 //y=0 //x2=5.365 //y2=1.18
cc_56 ( N_noxref_1_c_26_p N_noxref_8_c_920_n ) capacitor c=0.00469062f \
 //x=6.49 //y=0 //x2=5.365 //y2=1.18
cc_57 ( N_noxref_1_c_1_p N_noxref_8_c_920_n ) capacitor c=0.00131287f //x=9.25 \
 //y=0 //x2=5.365 //y2=1.18
cc_58 ( N_noxref_1_c_3_p N_noxref_8_c_920_n ) capacitor c=0.0453089f //x=3.33 \
 //y=0 //x2=5.365 //y2=1.18
cc_59 ( N_noxref_1_M2_noxref_d N_noxref_8_c_920_n ) capacitor c=0.00960943f \
 //x=4.32 //y=0.865 //x2=5.365 //y2=1.18
cc_60 ( N_noxref_1_c_5_p N_noxref_8_c_927_n ) capacitor c=0.00726481f //x=9.25 \
 //y=0 //x2=2.265 //y2=1.18
cc_61 ( N_noxref_1_c_5_p N_noxref_8_c_928_n ) capacitor c=0.0769222f //x=9.25 \
 //y=0 //x2=8.695 //y2=1.18
cc_62 ( N_noxref_1_c_26_p N_noxref_8_c_928_n ) capacitor c=0.00788597f \
 //x=6.49 //y=0 //x2=8.695 //y2=1.18
cc_63 ( N_noxref_1_c_36_p N_noxref_8_c_928_n ) capacitor c=0.00974891f \
 //x=7.755 //y=0 //x2=8.695 //y2=1.18
cc_64 ( N_noxref_1_c_1_p N_noxref_8_c_928_n ) capacitor c=0.0059511f //x=9.25 \
 //y=0 //x2=8.695 //y2=1.18
cc_65 ( N_noxref_1_c_4_p N_noxref_8_c_928_n ) capacitor c=0.0384314f //x=6.66 \
 //y=0 //x2=8.695 //y2=1.18
cc_66 ( N_noxref_1_M4_noxref_d N_noxref_8_c_928_n ) capacitor c=0.00960943f \
 //x=7.65 //y=0.865 //x2=8.695 //y2=1.18
cc_67 ( N_noxref_1_c_5_p N_noxref_8_c_934_n ) capacitor c=0.00664346f //x=9.25 \
 //y=0 //x2=5.595 //y2=1.18
cc_68 ( N_noxref_1_c_1_p N_noxref_8_c_935_n ) capacitor c=0.0472554f //x=9.25 \
 //y=0 //x2=9.165 //y2=1.645
cc_69 ( N_noxref_1_c_4_p N_noxref_8_c_936_n ) capacitor c=0.00109945f //x=6.66 \
 //y=0 //x2=9.25 //y2=5.125
cc_70 ( N_noxref_1_c_5_p N_noxref_8_M1_noxref_d ) capacitor c=2.00936e-19 \
 //x=9.25 //y=0 //x2=1.96 //y2=0.905
cc_71 ( N_noxref_1_c_3_p N_noxref_8_M1_noxref_d ) capacitor c=0.00141366f \
 //x=3.33 //y=0 //x2=1.96 //y2=0.905
cc_72 ( N_noxref_1_M0_noxref_d N_noxref_8_M1_noxref_d ) capacitor \
 c=0.00128667f //x=0.99 //y=0.865 //x2=1.96 //y2=0.905
cc_73 ( N_noxref_1_c_5_p N_noxref_8_M3_noxref_d ) capacitor c=2.00936e-19 \
 //x=9.25 //y=0 //x2=5.29 //y2=0.905
cc_74 ( N_noxref_1_c_4_p N_noxref_8_M3_noxref_d ) capacitor c=0.0014176f \
 //x=6.66 //y=0 //x2=5.29 //y2=0.905
cc_75 ( N_noxref_1_M2_noxref_d N_noxref_8_M3_noxref_d ) capacitor c=0.0012247f \
 //x=4.32 //y=0.865 //x2=5.29 //y2=0.905
cc_76 ( N_noxref_1_c_5_p N_noxref_8_M5_noxref_d ) capacitor c=2.00936e-19 \
 //x=9.25 //y=0 //x2=8.62 //y2=0.905
cc_77 ( N_noxref_1_c_1_p N_noxref_8_M5_noxref_d ) capacitor c=0.00524992f \
 //x=9.25 //y=0 //x2=8.62 //y2=0.905
cc_78 ( N_noxref_1_c_4_p N_noxref_8_M5_noxref_d ) capacitor c=8.62423e-19 \
 //x=6.66 //y=0 //x2=8.62 //y2=0.905
cc_79 ( N_noxref_1_M4_noxref_d N_noxref_8_M5_noxref_d ) capacitor c=0.0012247f \
 //x=7.65 //y=0.865 //x2=8.62 //y2=0.905
cc_80 ( N_noxref_1_c_5_p N_noxref_9_c_1078_n ) capacitor c=0.00712276f \
 //x=9.25 //y=0 //x2=1.58 //y2=1.58
cc_81 ( N_noxref_1_c_10_p N_noxref_9_c_1078_n ) capacitor c=0.00111428f \
 //x=1.095 //y=0 //x2=1.58 //y2=1.58
cc_82 ( N_noxref_1_c_17_p N_noxref_9_c_1078_n ) capacitor c=0.00180846f \
 //x=3.16 //y=0 //x2=1.58 //y2=1.58
cc_83 ( N_noxref_1_M0_noxref_d N_noxref_9_c_1078_n ) capacitor c=0.00942524f \
 //x=0.99 //y=0.865 //x2=1.58 //y2=1.58
cc_84 ( N_noxref_1_c_5_p N_noxref_9_c_1082_n ) capacitor c=0.00723598f \
 //x=9.25 //y=0 //x2=1.665 //y2=0.615
cc_85 ( N_noxref_1_c_17_p N_noxref_9_c_1082_n ) capacitor c=0.0146208f \
 //x=3.16 //y=0 //x2=1.665 //y2=0.615
cc_86 ( N_noxref_1_c_1_p N_noxref_9_c_1082_n ) capacitor c=0.00145873f \
 //x=9.25 //y=0 //x2=1.665 //y2=0.615
cc_87 ( N_noxref_1_M0_noxref_d N_noxref_9_c_1082_n ) capacitor c=0.0336822f \
 //x=0.99 //y=0.865 //x2=1.665 //y2=0.615
cc_88 ( N_noxref_1_c_2_p N_noxref_9_c_1086_n ) capacitor c=2.91423e-19 \
 //x=0.74 //y=0 //x2=1.665 //y2=1.495
cc_89 ( N_noxref_1_c_5_p N_noxref_9_c_1087_n ) capacitor c=0.0126964f //x=9.25 \
 //y=0 //x2=2.55 //y2=0.53
cc_90 ( N_noxref_1_c_17_p N_noxref_9_c_1087_n ) capacitor c=0.0373026f \
 //x=3.16 //y=0 //x2=2.55 //y2=0.53
cc_91 ( N_noxref_1_c_1_p N_noxref_9_c_1087_n ) capacitor c=0.00198596f \
 //x=9.25 //y=0 //x2=2.55 //y2=0.53
cc_92 ( N_noxref_1_c_5_p N_noxref_9_c_1090_n ) capacitor c=0.00212661f \
 //x=9.25 //y=0 //x2=2.635 //y2=0.615
cc_93 ( N_noxref_1_c_17_p N_noxref_9_c_1090_n ) capacitor c=0.0143168f \
 //x=3.16 //y=0 //x2=2.635 //y2=0.615
cc_94 ( N_noxref_1_c_1_p N_noxref_9_c_1090_n ) capacitor c=0.00145873f \
 //x=9.25 //y=0 //x2=2.635 //y2=0.615
cc_95 ( N_noxref_1_c_3_p N_noxref_9_c_1090_n ) capacitor c=0.0555325f //x=3.33 \
 //y=0 //x2=2.635 //y2=0.615
cc_96 ( N_noxref_1_c_5_p N_noxref_9_M0_noxref_s ) capacitor c=0.00723598f \
 //x=9.25 //y=0 //x2=0.56 //y2=0.365
cc_97 ( N_noxref_1_c_10_p N_noxref_9_M0_noxref_s ) capacitor c=0.0145422f \
 //x=1.095 //y=0 //x2=0.56 //y2=0.365
cc_98 ( N_noxref_1_c_2_p N_noxref_9_M0_noxref_s ) capacitor c=0.0598652f \
 //x=0.74 //y=0 //x2=0.56 //y2=0.365
cc_99 ( N_noxref_1_c_1_p N_noxref_9_M0_noxref_s ) capacitor c=0.00145873f \
 //x=9.25 //y=0 //x2=0.56 //y2=0.365
cc_100 ( N_noxref_1_c_3_p N_noxref_9_M0_noxref_s ) capacitor c=0.00181744f \
 //x=3.33 //y=0 //x2=0.56 //y2=0.365
cc_101 ( N_noxref_1_M0_noxref_d N_noxref_9_M0_noxref_s ) capacitor \
 c=0.0333456f //x=0.99 //y=0.865 //x2=0.56 //y2=0.365
cc_102 ( N_noxref_1_c_20_p N_noxref_10_c_1132_n ) capacitor c=8.01905e-19 \
 //x=4.425 //y=0 //x2=4.91 //y2=1.58
cc_103 ( N_noxref_1_c_26_p N_noxref_10_c_1132_n ) capacitor c=0.00161527f \
 //x=6.49 //y=0 //x2=4.91 //y2=1.58
cc_104 ( N_noxref_1_M2_noxref_d N_noxref_10_c_1132_n ) capacitor c=0.0073276f \
 //x=4.32 //y=0.865 //x2=4.91 //y2=1.58
cc_105 ( N_noxref_1_c_5_p N_noxref_10_c_1135_n ) capacitor c=0.00212661f \
 //x=9.25 //y=0 //x2=4.995 //y2=0.615
cc_106 ( N_noxref_1_c_26_p N_noxref_10_c_1135_n ) capacitor c=0.0143168f \
 //x=6.49 //y=0 //x2=4.995 //y2=0.615
cc_107 ( N_noxref_1_c_1_p N_noxref_10_c_1135_n ) capacitor c=0.00145873f \
 //x=9.25 //y=0 //x2=4.995 //y2=0.615
cc_108 ( N_noxref_1_M2_noxref_d N_noxref_10_c_1135_n ) capacitor c=0.0336662f \
 //x=4.32 //y=0.865 //x2=4.995 //y2=0.615
cc_109 ( N_noxref_1_c_3_p N_noxref_10_c_1139_n ) capacitor c=2.91423e-19 \
 //x=3.33 //y=0 //x2=4.995 //y2=1.495
cc_110 ( N_noxref_1_c_5_p N_noxref_10_c_1140_n ) capacitor c=0.00884129f \
 //x=9.25 //y=0 //x2=5.88 //y2=0.53
cc_111 ( N_noxref_1_c_26_p N_noxref_10_c_1140_n ) capacitor c=0.0373651f \
 //x=6.49 //y=0 //x2=5.88 //y2=0.53
cc_112 ( N_noxref_1_c_1_p N_noxref_10_c_1140_n ) capacitor c=0.00198596f \
 //x=9.25 //y=0 //x2=5.88 //y2=0.53
cc_113 ( N_noxref_1_c_5_p N_noxref_10_c_1143_n ) capacitor c=0.00212661f \
 //x=9.25 //y=0 //x2=5.965 //y2=0.615
cc_114 ( N_noxref_1_c_26_p N_noxref_10_c_1143_n ) capacitor c=0.0143168f \
 //x=6.49 //y=0 //x2=5.965 //y2=0.615
cc_115 ( N_noxref_1_c_1_p N_noxref_10_c_1143_n ) capacitor c=0.00145873f \
 //x=9.25 //y=0 //x2=5.965 //y2=0.615
cc_116 ( N_noxref_1_c_4_p N_noxref_10_c_1143_n ) capacitor c=0.054903f \
 //x=6.66 //y=0 //x2=5.965 //y2=0.615
cc_117 ( N_noxref_1_c_5_p N_noxref_10_M2_noxref_s ) capacitor c=0.00212661f \
 //x=9.25 //y=0 //x2=3.89 //y2=0.365
cc_118 ( N_noxref_1_c_20_p N_noxref_10_M2_noxref_s ) capacitor c=0.0143168f \
 //x=4.425 //y=0 //x2=3.89 //y2=0.365
cc_119 ( N_noxref_1_c_1_p N_noxref_10_M2_noxref_s ) capacitor c=0.00145873f \
 //x=9.25 //y=0 //x2=3.89 //y2=0.365
cc_120 ( N_noxref_1_c_3_p N_noxref_10_M2_noxref_s ) capacitor c=0.0561199f \
 //x=3.33 //y=0 //x2=3.89 //y2=0.365
cc_121 ( N_noxref_1_c_4_p N_noxref_10_M2_noxref_s ) capacitor c=0.0022128f \
 //x=6.66 //y=0 //x2=3.89 //y2=0.365
cc_122 ( N_noxref_1_M2_noxref_d N_noxref_10_M2_noxref_s ) capacitor \
 c=0.0333038f //x=4.32 //y=0.865 //x2=3.89 //y2=0.365
cc_123 ( N_noxref_1_c_36_p N_noxref_11_c_1188_n ) capacitor c=8.01912e-19 \
 //x=7.755 //y=0 //x2=8.24 //y2=1.58
cc_124 ( N_noxref_1_c_1_p N_noxref_11_c_1188_n ) capacitor c=0.00161527f \
 //x=9.25 //y=0 //x2=8.24 //y2=1.58
cc_125 ( N_noxref_1_M4_noxref_d N_noxref_11_c_1188_n ) capacitor c=0.0073482f \
 //x=7.65 //y=0.865 //x2=8.24 //y2=1.58
cc_126 ( N_noxref_1_c_5_p N_noxref_11_c_1191_n ) capacitor c=0.00212661f \
 //x=9.25 //y=0 //x2=8.325 //y2=0.615
cc_127 ( N_noxref_1_c_1_p N_noxref_11_c_1191_n ) capacitor c=0.0157756f \
 //x=9.25 //y=0 //x2=8.325 //y2=0.615
cc_128 ( N_noxref_1_M4_noxref_d N_noxref_11_c_1191_n ) capacitor c=0.0336662f \
 //x=7.65 //y=0.865 //x2=8.325 //y2=0.615
cc_129 ( N_noxref_1_c_4_p N_noxref_11_c_1194_n ) capacitor c=2.91423e-19 \
 //x=6.66 //y=0 //x2=8.325 //y2=1.495
cc_130 ( N_noxref_1_c_5_p N_noxref_11_c_1195_n ) capacitor c=0.0127012f \
 //x=9.25 //y=0 //x2=9.21 //y2=0.53
cc_131 ( N_noxref_1_c_1_p N_noxref_11_c_1195_n ) capacitor c=0.0391648f \
 //x=9.25 //y=0 //x2=9.21 //y2=0.53
cc_132 ( N_noxref_1_c_5_p N_noxref_11_c_1197_n ) capacitor c=0.00719686f \
 //x=9.25 //y=0 //x2=9.295 //y2=0.615
cc_133 ( N_noxref_1_c_1_p N_noxref_11_c_1197_n ) capacitor c=0.0596361f \
 //x=9.25 //y=0 //x2=9.295 //y2=0.615
cc_134 ( N_noxref_1_c_5_p N_noxref_11_M4_noxref_s ) capacitor c=0.00212661f \
 //x=9.25 //y=0 //x2=7.22 //y2=0.365
cc_135 ( N_noxref_1_c_36_p N_noxref_11_M4_noxref_s ) capacitor c=0.0143168f \
 //x=7.755 //y=0 //x2=7.22 //y2=0.365
cc_136 ( N_noxref_1_c_1_p N_noxref_11_M4_noxref_s ) capacitor c=0.00348141f \
 //x=9.25 //y=0 //x2=7.22 //y2=0.365
cc_137 ( N_noxref_1_c_4_p N_noxref_11_M4_noxref_s ) capacitor c=0.0555232f \
 //x=6.66 //y=0 //x2=7.22 //y2=0.365
cc_138 ( N_noxref_1_M4_noxref_d N_noxref_11_M4_noxref_s ) capacitor \
 c=0.0333038f //x=7.65 //y=0.865 //x2=7.22 //y2=0.365
cc_139 ( N_noxref_2_c_141_n N_noxref_3_c_245_n ) capacitor c=0.0450989f \
 //x=3.33 //y=7.4 //x2=3.995 //y2=5.21
cc_140 ( N_noxref_2_M9_noxref_d N_noxref_3_c_245_n ) capacitor c=0.0208274f \
 //x=2.405 //y=5.025 //x2=3.995 //y2=5.21
cc_141 ( N_noxref_2_c_140_n N_noxref_3_c_247_n ) capacitor c=2.85394e-19 \
 //x=0.74 //y=7.4 //x2=2.225 //y2=5.21
cc_142 ( N_noxref_2_c_141_n N_noxref_3_c_247_n ) capacitor c=3.35418e-19 \
 //x=3.33 //y=7.4 //x2=2.225 //y2=5.21
cc_143 ( N_noxref_2_M9_noxref_d N_noxref_3_c_247_n ) capacitor c=6.02701e-19 \
 //x=2.405 //y=5.025 //x2=2.225 //y2=5.21
cc_144 ( N_noxref_2_c_148_p N_noxref_3_c_250_n ) capacitor c=5.81484e-19 \
 //x=1.585 //y=7.4 //x2=2.025 //y2=5.21
cc_145 ( N_noxref_2_c_149_p N_noxref_3_c_250_n ) capacitor c=5.32614e-19 \
 //x=2.465 //y=7.4 //x2=2.025 //y2=5.21
cc_146 ( N_noxref_2_M7_noxref_d N_noxref_3_c_250_n ) capacitor c=0.0129506f \
 //x=1.525 //y=5.025 //x2=2.025 //y2=5.21
cc_147 ( N_noxref_2_c_140_n N_noxref_3_c_253_n ) capacitor c=0.00914165f \
 //x=0.74 //y=7.4 //x2=1.315 //y2=5.21
cc_148 ( N_noxref_2_M6_noxref_s N_noxref_3_c_253_n ) capacitor c=0.0872987f \
 //x=0.655 //y=5.025 //x2=1.315 //y2=5.21
cc_149 ( N_noxref_2_c_140_n N_noxref_3_c_255_n ) capacitor c=6.65559e-19 \
 //x=0.74 //y=7.4 //x2=2.11 //y2=5.295
cc_150 ( N_noxref_2_c_141_n N_noxref_3_c_255_n ) capacitor c=0.00985441f \
 //x=3.33 //y=7.4 //x2=2.11 //y2=5.295
cc_151 ( N_noxref_2_M9_noxref_d N_noxref_3_c_255_n ) capacitor c=0.0873334f \
 //x=2.405 //y=5.025 //x2=2.11 //y2=5.295
cc_152 ( N_noxref_2_c_141_n N_noxref_3_c_258_n ) capacitor c=0.0674112f \
 //x=3.33 //y=7.4 //x2=4.11 //y2=5.21
cc_153 ( N_noxref_2_M9_noxref_d N_noxref_3_c_258_n ) capacitor c=0.00235009f \
 //x=2.405 //y=5.025 //x2=4.11 //y2=5.21
cc_154 ( N_noxref_2_c_139_n N_noxref_3_c_260_n ) capacitor c=0.0024144f \
 //x=9.25 //y=7.4 //x2=4.905 //y2=6.91
cc_155 ( N_noxref_2_c_159_p N_noxref_3_c_261_n ) capacitor c=0.0564858f \
 //x=9.25 //y=7.4 //x2=4.195 //y2=6.91
cc_156 ( N_noxref_2_c_160_p N_noxref_3_c_261_n ) capacitor c=0.104695f \
 //x=6.49 //y=7.4 //x2=4.195 //y2=6.91
cc_157 ( N_noxref_2_c_139_n N_noxref_3_c_261_n ) capacitor c=0.00118756f \
 //x=9.25 //y=7.4 //x2=4.195 //y2=6.91
cc_158 ( N_noxref_2_c_139_n N_noxref_3_c_264_n ) capacitor c=0.00359767f \
 //x=9.25 //y=7.4 //x2=5.785 //y2=6.91
cc_159 ( N_noxref_2_c_139_n N_noxref_3_c_265_n ) capacitor c=0.00118056f \
 //x=9.25 //y=7.4 //x2=4.99 //y2=6.91
cc_160 ( N_noxref_2_c_159_p N_noxref_3_M6_noxref_d ) capacitor c=0.0073428f \
 //x=9.25 //y=7.4 //x2=1.085 //y2=5.025
cc_161 ( N_noxref_2_c_148_p N_noxref_3_M6_noxref_d ) capacitor c=0.0128578f \
 //x=1.585 //y=7.4 //x2=1.085 //y2=5.025
cc_162 ( N_noxref_2_c_139_n N_noxref_3_M6_noxref_d ) capacitor c=0.00118659f \
 //x=9.25 //y=7.4 //x2=1.085 //y2=5.025
cc_163 ( N_noxref_2_M7_noxref_d N_noxref_3_M6_noxref_d ) capacitor c=0.067695f \
 //x=1.525 //y=5.025 //x2=1.085 //y2=5.025
cc_164 ( N_noxref_2_M9_noxref_d N_noxref_3_M6_noxref_d ) capacitor \
 c=0.00105738f //x=2.405 //y=5.025 //x2=1.085 //y2=5.025
cc_165 ( N_noxref_2_c_159_p N_noxref_3_M8_noxref_d ) capacitor c=0.00423818f \
 //x=9.25 //y=7.4 //x2=1.965 //y2=5.025
cc_166 ( N_noxref_2_c_149_p N_noxref_3_M8_noxref_d ) capacitor c=0.0126484f \
 //x=2.465 //y=7.4 //x2=1.965 //y2=5.025
cc_167 ( N_noxref_2_c_139_n N_noxref_3_M8_noxref_d ) capacitor c=0.00118756f \
 //x=9.25 //y=7.4 //x2=1.965 //y2=5.025
cc_168 ( N_noxref_2_M6_noxref_s N_noxref_3_M8_noxref_d ) capacitor \
 c=0.00103189f //x=0.655 //y=5.025 //x2=1.965 //y2=5.025
cc_169 ( N_noxref_2_M7_noxref_d N_noxref_3_M8_noxref_d ) capacitor \
 c=0.0653408f //x=1.525 //y=5.025 //x2=1.965 //y2=5.025
cc_170 ( N_noxref_2_c_141_n N_noxref_3_M11_noxref_d ) capacitor c=8.96067e-19 \
 //x=3.33 //y=7.4 //x2=4.845 //y2=5.025
cc_171 ( N_noxref_2_c_142_n N_noxref_3_M11_noxref_d ) capacitor c=8.88629e-19 \
 //x=6.66 //y=7.4 //x2=4.845 //y2=5.025
cc_172 ( N_noxref_2_c_142_n N_noxref_3_M13_noxref_d ) capacitor c=0.0575594f \
 //x=6.66 //y=7.4 //x2=5.725 //y2=5.025
cc_173 ( N_noxref_2_c_141_n N_noxref_4_c_361_n ) capacitor c=0.0345509f \
 //x=3.33 //y=7.4 //x2=4.325 //y2=4.44
cc_174 ( N_noxref_2_M6_noxref_s N_noxref_4_c_361_n ) capacitor c=5.85646e-19 \
 //x=0.655 //y=5.025 //x2=4.325 //y2=4.44
cc_175 ( N_noxref_2_M9_noxref_d N_noxref_4_c_361_n ) capacitor c=0.00369846f \
 //x=2.405 //y=5.025 //x2=4.325 //y2=4.44
cc_176 ( N_noxref_2_c_140_n N_noxref_4_c_364_n ) capacitor c=0.00752464f \
 //x=0.74 //y=7.4 //x2=0.855 //y2=4.44
cc_177 ( N_noxref_2_M6_noxref_s N_noxref_4_c_364_n ) capacitor c=0.00298197f \
 //x=0.655 //y=5.025 //x2=0.855 //y2=4.44
cc_178 ( N_noxref_2_c_140_n N_noxref_4_c_336_n ) capacitor c=0.0253776f \
 //x=0.74 //y=7.4 //x2=0.74 //y2=2.08
cc_179 ( N_noxref_2_c_141_n N_noxref_4_c_336_n ) capacitor c=3.72488e-19 \
 //x=3.33 //y=7.4 //x2=0.74 //y2=2.08
cc_180 ( N_noxref_2_M6_noxref_s N_noxref_4_c_336_n ) capacitor c=0.0117185f \
 //x=0.655 //y=5.025 //x2=0.74 //y2=2.08
cc_181 ( N_noxref_2_c_141_n N_noxref_4_c_339_n ) capacitor c=0.0132049f \
 //x=3.33 //y=7.4 //x2=4.44 //y2=2.08
cc_182 ( N_noxref_2_c_142_n N_noxref_4_c_339_n ) capacitor c=0.00104034f \
 //x=6.66 //y=7.4 //x2=4.44 //y2=2.08
cc_183 ( N_noxref_2_c_148_p N_noxref_4_M6_noxref_g ) capacitor c=0.00754867f \
 //x=1.585 //y=7.4 //x2=1.01 //y2=6.025
cc_184 ( N_noxref_2_c_140_n N_noxref_4_M6_noxref_g ) capacitor c=0.0202257f \
 //x=0.74 //y=7.4 //x2=1.01 //y2=6.025
cc_185 ( N_noxref_2_M6_noxref_s N_noxref_4_M6_noxref_g ) capacitor \
 c=0.0547553f //x=0.655 //y=5.025 //x2=1.01 //y2=6.025
cc_186 ( N_noxref_2_c_148_p N_noxref_4_M7_noxref_g ) capacitor c=0.00678153f \
 //x=1.585 //y=7.4 //x2=1.45 //y2=6.025
cc_187 ( N_noxref_2_M7_noxref_d N_noxref_4_M7_noxref_g ) capacitor c=0.015501f \
 //x=1.525 //y=5.025 //x2=1.45 //y2=6.025
cc_188 ( N_noxref_2_c_160_p N_noxref_4_M10_noxref_g ) capacitor c=0.00513227f \
 //x=6.49 //y=7.4 //x2=4.33 //y2=6.025
cc_189 ( N_noxref_2_c_141_n N_noxref_4_M10_noxref_g ) capacitor c=0.00316281f \
 //x=3.33 //y=7.4 //x2=4.33 //y2=6.025
cc_190 ( N_noxref_2_c_160_p N_noxref_4_M11_noxref_g ) capacitor c=0.00512552f \
 //x=6.49 //y=7.4 //x2=4.77 //y2=6.025
cc_191 ( N_noxref_2_c_140_n N_noxref_4_c_379_n ) capacitor c=0.0110236f \
 //x=0.74 //y=7.4 //x2=1.085 //y2=4.795
cc_192 ( N_noxref_2_M6_noxref_s N_noxref_4_c_379_n ) capacitor c=0.0059735f \
 //x=0.655 //y=5.025 //x2=1.085 //y2=4.795
cc_193 ( N_noxref_2_c_141_n N_noxref_4_c_381_n ) capacitor c=0.0115029f \
 //x=3.33 //y=7.4 //x2=4.44 //y2=4.705
cc_194 ( N_noxref_2_c_141_n N_noxref_5_c_491_n ) capacitor c=7.57423e-19 \
 //x=3.33 //y=7.4 //x2=5.92 //y2=2.08
cc_195 ( N_noxref_2_c_142_n N_noxref_5_c_491_n ) capacitor c=0.0267895f \
 //x=6.66 //y=7.4 //x2=5.92 //y2=2.08
cc_196 ( N_noxref_2_c_142_n N_noxref_5_c_493_n ) capacitor c=0.0267241f \
 //x=6.66 //y=7.4 //x2=7.4 //y2=2.08
cc_197 ( N_noxref_2_c_160_p N_noxref_5_M12_noxref_g ) capacitor c=0.00512552f \
 //x=6.49 //y=7.4 //x2=5.21 //y2=6.025
cc_198 ( N_noxref_2_c_160_p N_noxref_5_M13_noxref_g ) capacitor c=0.00512552f \
 //x=6.49 //y=7.4 //x2=5.65 //y2=6.025
cc_199 ( N_noxref_2_c_142_n N_noxref_5_M13_noxref_g ) capacitor c=0.010355f \
 //x=6.66 //y=7.4 //x2=5.65 //y2=6.025
cc_200 ( N_noxref_2_c_139_n N_noxref_5_M14_noxref_g ) capacitor c=0.00512552f \
 //x=9.25 //y=7.4 //x2=7.67 //y2=6.025
cc_201 ( N_noxref_2_c_142_n N_noxref_5_M14_noxref_g ) capacitor c=0.00767856f \
 //x=6.66 //y=7.4 //x2=7.67 //y2=6.025
cc_202 ( N_noxref_2_c_139_n N_noxref_5_M15_noxref_g ) capacitor c=0.00512552f \
 //x=9.25 //y=7.4 //x2=8.11 //y2=6.025
cc_203 ( N_noxref_2_c_142_n N_noxref_5_c_514_n ) capacitor c=0.00803198f \
 //x=6.66 //y=7.4 //x2=5.65 //y2=4.87
cc_204 ( N_noxref_2_c_142_n N_noxref_5_c_515_n ) capacitor c=0.00803198f \
 //x=6.66 //y=7.4 //x2=7.745 //y2=4.795
cc_205 ( N_noxref_2_c_142_n N_noxref_6_c_654_n ) capacitor c=0.0494078f \
 //x=6.66 //y=7.4 //x2=7.335 //y2=5.21
cc_206 ( N_noxref_2_c_142_n N_noxref_6_c_655_n ) capacitor c=6.67754e-19 \
 //x=6.66 //y=7.4 //x2=5.545 //y2=5.21
cc_207 ( N_noxref_2_c_141_n N_noxref_6_c_656_n ) capacitor c=0.00662411f \
 //x=3.33 //y=7.4 //x2=4.635 //y2=5.21
cc_208 ( N_noxref_2_c_142_n N_noxref_6_c_657_n ) capacitor c=0.00999961f \
 //x=6.66 //y=7.4 //x2=5.43 //y2=5.295
cc_209 ( N_noxref_2_c_139_n N_noxref_6_c_658_n ) capacitor c=6.6489e-19 \
 //x=9.25 //y=7.4 //x2=7.45 //y2=5.21
cc_210 ( N_noxref_2_c_142_n N_noxref_6_c_658_n ) capacitor c=0.0664301f \
 //x=6.66 //y=7.4 //x2=7.45 //y2=5.21
cc_211 ( N_noxref_2_c_139_n N_noxref_6_c_660_n ) capacitor c=0.0024144f \
 //x=9.25 //y=7.4 //x2=8.245 //y2=6.91
cc_212 ( N_noxref_2_c_159_p N_noxref_6_c_661_n ) capacitor c=0.0635381f \
 //x=9.25 //y=7.4 //x2=7.535 //y2=6.91
cc_213 ( N_noxref_2_c_139_n N_noxref_6_c_661_n ) capacitor c=0.105729f \
 //x=9.25 //y=7.4 //x2=7.535 //y2=6.91
cc_214 ( N_noxref_2_c_139_n N_noxref_6_c_663_n ) capacitor c=0.00359496f \
 //x=9.25 //y=7.4 //x2=9.125 //y2=6.91
cc_215 ( N_noxref_2_c_139_n N_noxref_6_c_664_n ) capacitor c=0.00118056f \
 //x=9.25 //y=7.4 //x2=8.33 //y2=6.91
cc_216 ( N_noxref_2_c_139_n N_noxref_6_M15_noxref_d ) capacitor c=8.96067e-19 \
 //x=9.25 //y=7.4 //x2=8.185 //y2=5.025
cc_217 ( N_noxref_2_c_142_n N_noxref_6_M15_noxref_d ) capacitor c=8.88629e-19 \
 //x=6.66 //y=7.4 //x2=8.185 //y2=5.025
cc_218 ( N_noxref_2_c_139_n N_noxref_6_M17_noxref_d ) capacitor c=0.0529764f \
 //x=9.25 //y=7.4 //x2=9.065 //y2=5.025
cc_219 ( N_noxref_2_c_141_n N_noxref_7_c_740_n ) capacitor c=0.0177125f \
 //x=3.33 //y=7.4 //x2=8.395 //y2=4.07
cc_220 ( N_noxref_2_c_142_n N_noxref_7_c_740_n ) capacitor c=0.0248101f \
 //x=6.66 //y=7.4 //x2=8.395 //y2=4.07
cc_221 ( N_noxref_2_c_141_n N_noxref_7_c_749_n ) capacitor c=4.48866e-19 \
 //x=3.33 //y=7.4 //x2=1.965 //y2=4.07