// File: voter3x1_pcell.spi.VOTER3X1_PCELL.pxi
// Created: Tue Oct 15 16:00:48 2024
// 
simulator lang=spectre
x_PM_VOTER3X1_PCELL\%noxref_1 ( N_noxref_1_c_6_p N_noxref_1_c_11_p \
 N_noxref_1_c_1_p N_noxref_1_c_18_p N_noxref_1_c_21_p N_noxref_1_c_27_p \
 N_noxref_1_c_37_p N_noxref_1_c_43_p N_noxref_1_c_155_p N_noxref_1_c_75_p \
 N_noxref_1_c_83_p N_noxref_1_c_2_p N_noxref_1_c_3_p N_noxref_1_c_4_p \
 N_noxref_1_c_5_p N_noxref_1_M0_noxref_d N_noxref_1_M2_noxref_d \
 N_noxref_1_M4_noxref_d N_noxref_1_M6_noxref_s )  PM_VOTER3X1_PCELL\%noxref_1
x_PM_VOTER3X1_PCELL\%noxref_2 ( N_noxref_2_c_195_p N_noxref_2_c_184_p \
 N_noxref_2_c_185_p N_noxref_2_c_196_p N_noxref_2_c_240_p N_noxref_2_c_289_p \
 N_noxref_2_c_174_n N_noxref_2_c_175_n N_noxref_2_c_176_n N_noxref_2_c_177_n \
 N_noxref_2_c_178_n N_noxref_2_M7_noxref_s N_noxref_2_M8_noxref_d \
 N_noxref_2_M10_noxref_d N_noxref_2_M19_noxref_s N_noxref_2_M20_noxref_d )  \
 PM_VOTER3X1_PCELL\%noxref_2
x_PM_VOTER3X1_PCELL\%noxref_3 ( N_noxref_3_c_310_n N_noxref_3_c_312_n \
 N_noxref_3_c_315_n N_noxref_3_c_318_n N_noxref_3_c_320_n N_noxref_3_c_323_n \
 N_noxref_3_c_325_n N_noxref_3_c_326_n N_noxref_3_c_329_n N_noxref_3_c_330_n \
 N_noxref_3_M7_noxref_d N_noxref_3_M9_noxref_d N_noxref_3_M11_noxref_s \
 N_noxref_3_M12_noxref_d N_noxref_3_M14_noxref_d )  PM_VOTER3X1_PCELL\%noxref_3
x_PM_VOTER3X1_PCELL\%noxref_4 ( N_noxref_4_c_426_n N_noxref_4_c_429_n \
 N_noxref_4_c_401_n N_noxref_4_c_404_n N_noxref_4_M0_noxref_g \
 N_noxref_4_M2_noxref_g N_noxref_4_M7_noxref_g N_noxref_4_M8_noxref_g \
 N_noxref_4_M11_noxref_g N_noxref_4_M12_noxref_g N_noxref_4_c_406_n \
 N_noxref_4_c_408_n N_noxref_4_c_409_n N_noxref_4_c_410_n N_noxref_4_c_411_n \
 N_noxref_4_c_412_n N_noxref_4_c_462_n N_noxref_4_c_444_n N_noxref_4_c_413_n \
 N_noxref_4_c_415_n N_noxref_4_c_416_n N_noxref_4_c_418_n N_noxref_4_c_475_p \
 N_noxref_4_c_419_n N_noxref_4_c_420_n N_noxref_4_c_421_n N_noxref_4_c_422_n \
 N_noxref_4_c_424_n N_noxref_4_c_425_n N_noxref_4_c_446_n )  \
 PM_VOTER3X1_PCELL\%noxref_4
x_PM_VOTER3X1_PCELL\%noxref_5 ( N_noxref_5_c_554_n N_noxref_5_c_555_n \
 N_noxref_5_c_556_n N_noxref_5_c_558_n N_noxref_5_M3_noxref_g \
 N_noxref_5_M4_noxref_g N_noxref_5_M13_noxref_g N_noxref_5_M14_noxref_g \
 N_noxref_5_M15_noxref_g N_noxref_5_M16_noxref_g N_noxref_5_c_596_n \
 N_noxref_5_c_599_n N_noxref_5_c_621_p N_noxref_5_c_601_n N_noxref_5_c_677_p \
 N_noxref_5_c_678_p N_noxref_5_c_579_n N_noxref_5_c_605_n N_noxref_5_c_606_n \
 N_noxref_5_c_607_n N_noxref_5_c_559_n N_noxref_5_c_560_n N_noxref_5_c_562_n \
 N_noxref_5_c_649_p N_noxref_5_c_563_n N_noxref_5_c_564_n N_noxref_5_c_565_n \
 N_noxref_5_c_640_p N_noxref_5_c_580_n N_noxref_5_c_566_n N_noxref_5_c_568_n \
 N_noxref_5_c_569_n )  PM_VOTER3X1_PCELL\%noxref_5
x_PM_VOTER3X1_PCELL\%noxref_6 ( N_noxref_6_c_719_n N_noxref_6_c_720_n \
 N_noxref_6_c_740_n N_noxref_6_c_721_n N_noxref_6_c_722_n N_noxref_6_c_723_n \
 N_noxref_6_c_725_n N_noxref_6_c_726_n N_noxref_6_c_729_n N_noxref_6_c_730_n \
 N_noxref_6_M11_noxref_d N_noxref_6_M13_noxref_d N_noxref_6_M15_noxref_s \
 N_noxref_6_M16_noxref_d N_noxref_6_M18_noxref_d )  PM_VOTER3X1_PCELL\%noxref_6
x_PM_VOTER3X1_PCELL\%noxref_7 ( N_noxref_7_c_807_n N_noxref_7_c_816_n \
 N_noxref_7_c_817_n N_noxref_7_c_809_n N_noxref_7_c_811_n N_noxref_7_c_888_n \
 N_noxref_7_M1_noxref_g N_noxref_7_M5_noxref_g N_noxref_7_M9_noxref_g \
 N_noxref_7_M10_noxref_g N_noxref_7_M17_noxref_g N_noxref_7_M18_noxref_g \
 N_noxref_7_c_860_n N_noxref_7_c_863_n N_noxref_7_c_865_n N_noxref_7_c_829_n \
 N_noxref_7_c_924_p N_noxref_7_c_925_p N_noxref_7_c_869_n N_noxref_7_c_870_n \
 N_noxref_7_c_893_n N_noxref_7_c_896_n N_noxref_7_c_897_n N_noxref_7_c_949_p \
 N_noxref_7_c_931_p N_noxref_7_c_900_n N_noxref_7_c_901_n N_noxref_7_c_902_n \
 N_noxref_7_c_813_n N_noxref_7_c_981_p N_noxref_7_c_830_n N_noxref_7_c_903_n \
 N_noxref_7_c_945_p N_noxref_7_c_906_n )  PM_VOTER3X1_PCELL\%noxref_7
x_PM_VOTER3X1_PCELL\%noxref_8 ( N_noxref_8_c_991_n N_noxref_8_c_998_n \
 N_noxref_8_c_999_n N_noxref_8_c_1006_n N_noxref_8_c_1007_n \
 N_noxref_8_c_1038_n N_noxref_8_c_1083_n N_noxref_8_c_1039_n \
 N_noxref_8_c_1040_n N_noxref_8_c_1008_n N_noxref_8_c_1136_n \
 N_noxref_8_c_1010_n N_noxref_8_c_1011_n N_noxref_8_c_1145_n \
 N_noxref_8_M6_noxref_g N_noxref_8_M19_noxref_g N_noxref_8_M20_noxref_g \
 N_noxref_8_c_1016_n N_noxref_8_c_1198_p N_noxref_8_c_1199_p \
 N_noxref_8_c_1018_n N_noxref_8_c_1052_n N_noxref_8_c_1053_n \
 N_noxref_8_c_1019_n N_noxref_8_c_1186_p N_noxref_8_c_1020_n \
 N_noxref_8_c_1022_n N_noxref_8_c_1023_n N_noxref_8_M1_noxref_d \
 N_noxref_8_M3_noxref_d N_noxref_8_M5_noxref_d N_noxref_8_M15_noxref_d \
 N_noxref_8_M17_noxref_d )  PM_VOTER3X1_PCELL\%noxref_8
x_PM_VOTER3X1_PCELL\%noxref_9 ( N_noxref_9_c_1232_n N_noxref_9_c_1210_n \
 N_noxref_9_c_1214_n N_noxref_9_c_1218_n N_noxref_9_c_1219_n \
 N_noxref_9_c_1222_n N_noxref_9_M0_noxref_s )  PM_VOTER3X1_PCELL\%noxref_9
x_PM_VOTER3X1_PCELL\%noxref_10 ( N_noxref_10_c_1285_n N_noxref_10_c_1264_n \
 N_noxref_10_c_1267_n N_noxref_10_c_1271_n N_noxref_10_c_1272_n \
 N_noxref_10_c_1275_n N_noxref_10_M2_noxref_s )  PM_VOTER3X1_PCELL\%noxref_10
x_PM_VOTER3X1_PCELL\%noxref_11 ( N_noxref_11_c_1343_n N_noxref_11_c_1320_n \
 N_noxref_11_c_1323_n N_noxref_11_c_1327_n N_noxref_11_c_1328_n \
 N_noxref_11_c_1331_n N_noxref_11_M4_noxref_s )  PM_VOTER3X1_PCELL\%noxref_11
x_PM_VOTER3X1_PCELL\%noxref_12 ( N_noxref_12_c_1378_n N_noxref_12_c_1398_n \
 N_noxref_12_c_1387_n N_noxref_12_c_1389_n N_noxref_12_c_1381_n \
 N_noxref_12_M6_noxref_d N_noxref_12_M19_noxref_d )  \
 PM_VOTER3X1_PCELL\%noxref_12
cc_1 ( N_noxref_1_c_1_p N_noxref_2_c_174_n ) capacitor c=0.00989031f //x=0.74 \
 //y=0 //x2=0.74 //y2=7.4
cc_2 ( N_noxref_1_c_2_p N_noxref_2_c_175_n ) capacitor c=0.0052832f //x=3.33 \
 //y=0 //x2=3.33 //y2=7.4
cc_3 ( N_noxref_1_c_3_p N_noxref_2_c_176_n ) capacitor c=0.0052832f //x=6.66 \
 //y=0 //x2=6.66 //y2=7.4
cc_4 ( N_noxref_1_c_4_p N_noxref_2_c_177_n ) capacitor c=0.0052832f //x=9.99 \
 //y=0 //x2=9.99 //y2=7.4
cc_5 ( N_noxref_1_c_5_p N_noxref_2_c_178_n ) capacitor c=0.00989031f //x=11.59 \
 //y=0 //x2=11.47 //y2=7.4
cc_6 ( N_noxref_1_c_6_p N_noxref_4_c_401_n ) capacitor c=3.78331e-19 //x=11.47 \
 //y=0 //x2=0.74 //y2=2.08
cc_7 ( N_noxref_1_c_1_p N_noxref_4_c_401_n ) capacitor c=0.0295726f //x=0.74 \
 //y=0 //x2=0.74 //y2=2.08
cc_8 ( N_noxref_1_c_2_p N_noxref_4_c_401_n ) capacitor c=3.10504e-19 //x=3.33 \
 //y=0 //x2=0.74 //y2=2.08
cc_9 ( N_noxref_1_c_2_p N_noxref_4_c_404_n ) capacitor c=0.0179404f //x=3.33 \
 //y=0 //x2=4.44 //y2=2.08
cc_10 ( N_noxref_1_c_3_p N_noxref_4_c_404_n ) capacitor c=7.87427e-19 //x=6.66 \
 //y=0 //x2=4.44 //y2=2.08
cc_11 ( N_noxref_1_c_11_p N_noxref_4_c_406_n ) capacitor c=0.0013864f \
 //x=1.095 //y=0 //x2=0.915 //y2=0.865
cc_12 ( N_noxref_1_M0_noxref_d N_noxref_4_c_406_n ) capacitor c=0.00220047f \
 //x=0.99 //y=0.865 //x2=0.915 //y2=0.865
cc_13 ( N_noxref_1_M0_noxref_d N_noxref_4_c_408_n ) capacitor c=0.00255985f \
 //x=0.99 //y=0.865 //x2=0.915 //y2=1.21
cc_14 ( N_noxref_1_c_1_p N_noxref_4_c_409_n ) capacitor c=0.00264481f //x=0.74 \
 //y=0 //x2=0.915 //y2=1.52
cc_15 ( N_noxref_1_c_1_p N_noxref_4_c_410_n ) capacitor c=0.00440632f //x=0.74 \
 //y=0 //x2=0.915 //y2=1.915
cc_16 ( N_noxref_1_M0_noxref_d N_noxref_4_c_411_n ) capacitor c=0.0131326f \
 //x=0.99 //y=0.865 //x2=1.29 //y2=0.71
cc_17 ( N_noxref_1_M0_noxref_d N_noxref_4_c_412_n ) capacitor c=0.00193127f \
 //x=0.99 //y=0.865 //x2=1.29 //y2=1.365
cc_18 ( N_noxref_1_c_18_p N_noxref_4_c_413_n ) capacitor c=0.00130622f \
 //x=3.16 //y=0 //x2=1.445 //y2=0.865
cc_19 ( N_noxref_1_M0_noxref_d N_noxref_4_c_413_n ) capacitor c=0.00257848f \
 //x=0.99 //y=0.865 //x2=1.445 //y2=0.865
cc_20 ( N_noxref_1_M0_noxref_d N_noxref_4_c_415_n ) capacitor c=0.00255985f \
 //x=0.99 //y=0.865 //x2=1.445 //y2=1.21
cc_21 ( N_noxref_1_c_21_p N_noxref_4_c_416_n ) capacitor c=0.00135046f \
 //x=4.425 //y=0 //x2=4.245 //y2=0.865
cc_22 ( N_noxref_1_M2_noxref_d N_noxref_4_c_416_n ) capacitor c=0.00220047f \
 //x=4.32 //y=0.865 //x2=4.245 //y2=0.865
cc_23 ( N_noxref_1_M2_noxref_d N_noxref_4_c_418_n ) capacitor c=0.00272336f \
 //x=4.32 //y=0.865 //x2=4.245 //y2=1.21
cc_24 ( N_noxref_1_c_2_p N_noxref_4_c_419_n ) capacitor c=0.0114904f //x=3.33 \
 //y=0 //x2=4.245 //y2=1.915
cc_25 ( N_noxref_1_M2_noxref_d N_noxref_4_c_420_n ) capacitor c=0.0131326f \
 //x=4.32 //y=0.865 //x2=4.62 //y2=0.71
cc_26 ( N_noxref_1_M2_noxref_d N_noxref_4_c_421_n ) capacitor c=0.00167494f \
 //x=4.32 //y=0.865 //x2=4.62 //y2=1.365
cc_27 ( N_noxref_1_c_27_p N_noxref_4_c_422_n ) capacitor c=0.00130622f \
 //x=6.49 //y=0 //x2=4.775 //y2=0.865
cc_28 ( N_noxref_1_M2_noxref_d N_noxref_4_c_422_n ) capacitor c=0.00257848f \
 //x=4.32 //y=0.865 //x2=4.775 //y2=0.865
cc_29 ( N_noxref_1_M2_noxref_d N_noxref_4_c_424_n ) capacitor c=0.00272336f \
 //x=4.32 //y=0.865 //x2=4.775 //y2=1.21
cc_30 ( N_noxref_1_c_1_p N_noxref_4_c_425_n ) capacitor c=0.01092f //x=0.74 \
 //y=0 //x2=0.74 //y2=2.08
cc_31 ( N_noxref_1_c_3_p N_noxref_5_c_554_n ) capacitor c=0.0396311f //x=6.66 \
 //y=0 //x2=7.285 //y2=2.08
cc_32 ( N_noxref_1_c_3_p N_noxref_5_c_555_n ) capacitor c=0.00128384f //x=6.66 \
 //y=0 //x2=6.035 //y2=2.08
cc_33 ( N_noxref_1_c_2_p N_noxref_5_c_556_n ) capacitor c=7.01065e-19 //x=3.33 \
 //y=0 //x2=5.92 //y2=2.08
cc_34 ( N_noxref_1_c_3_p N_noxref_5_c_556_n ) capacitor c=0.0266762f //x=6.66 \
 //y=0 //x2=5.92 //y2=2.08
cc_35 ( N_noxref_1_c_3_p N_noxref_5_c_558_n ) capacitor c=0.0266762f //x=6.66 \
 //y=0 //x2=7.4 //y2=2.08
cc_36 ( N_noxref_1_c_3_p N_noxref_5_c_559_n ) capacitor c=0.0103285f //x=6.66 \
 //y=0 //x2=5.745 //y2=1.915
cc_37 ( N_noxref_1_c_37_p N_noxref_5_c_560_n ) capacitor c=0.0013864f \
 //x=7.755 //y=0 //x2=7.575 //y2=0.865
cc_38 ( N_noxref_1_M4_noxref_d N_noxref_5_c_560_n ) capacitor c=0.00220047f \
 //x=7.65 //y=0.865 //x2=7.575 //y2=0.865
cc_39 ( N_noxref_1_M4_noxref_d N_noxref_5_c_562_n ) capacitor c=0.00272336f \
 //x=7.65 //y=0.865 //x2=7.575 //y2=1.21
cc_40 ( N_noxref_1_c_3_p N_noxref_5_c_563_n ) capacitor c=0.00369763f //x=6.66 \
 //y=0 //x2=7.575 //y2=1.915
cc_41 ( N_noxref_1_M4_noxref_d N_noxref_5_c_564_n ) capacitor c=0.0131326f \
 //x=7.65 //y=0.865 //x2=7.95 //y2=0.71
cc_42 ( N_noxref_1_M4_noxref_d N_noxref_5_c_565_n ) capacitor c=0.00167494f \
 //x=7.65 //y=0.865 //x2=7.95 //y2=1.365
cc_43 ( N_noxref_1_c_43_p N_noxref_5_c_566_n ) capacitor c=0.00130622f \
 //x=9.82 //y=0 //x2=8.105 //y2=0.865
cc_44 ( N_noxref_1_M4_noxref_d N_noxref_5_c_566_n ) capacitor c=0.00257848f \
 //x=7.65 //y=0.865 //x2=8.105 //y2=0.865
cc_45 ( N_noxref_1_M4_noxref_d N_noxref_5_c_568_n ) capacitor c=0.00272336f \
 //x=7.65 //y=0.865 //x2=8.105 //y2=1.21
cc_46 ( N_noxref_1_c_3_p N_noxref_5_c_569_n ) capacitor c=0.00662863f //x=6.66 \
 //y=0 //x2=7.4 //y2=2.08
cc_47 ( N_noxref_1_c_2_p N_noxref_7_c_807_n ) capacitor c=0.0036147f //x=3.33 \
 //y=0 //x2=8.395 //y2=4.07
cc_48 ( N_noxref_1_c_3_p N_noxref_7_c_807_n ) capacitor c=0.00281233f //x=6.66 \
 //y=0 //x2=8.395 //y2=4.07
cc_49 ( N_noxref_1_c_1_p N_noxref_7_c_809_n ) capacitor c=0.00123238f //x=0.74 \
 //y=0 //x2=1.85 //y2=2.08
cc_50 ( N_noxref_1_c_2_p N_noxref_7_c_809_n ) capacitor c=0.0125771f //x=3.33 \
 //y=0 //x2=1.85 //y2=2.08
cc_51 ( N_noxref_1_c_3_p N_noxref_7_c_811_n ) capacitor c=8.50308e-19 //x=6.66 \
 //y=0 //x2=8.51 //y2=2.08
cc_52 ( N_noxref_1_c_4_p N_noxref_7_c_811_n ) capacitor c=9.53263e-19 //x=9.99 \
 //y=0 //x2=8.51 //y2=2.08
cc_53 ( N_noxref_1_c_2_p N_noxref_7_c_813_n ) capacitor c=2.63786e-19 //x=3.33 \
 //y=0 //x2=1.85 //y2=2.08
cc_54 ( N_noxref_1_c_6_p N_noxref_8_c_991_n ) capacitor c=0.0696665f //x=11.47 \
 //y=0 //x2=5.365 //y2=1.18
cc_55 ( N_noxref_1_c_18_p N_noxref_8_c_991_n ) capacitor c=0.0081414f //x=3.16 \
 //y=0 //x2=5.365 //y2=1.18
cc_56 ( N_noxref_1_c_21_p N_noxref_8_c_991_n ) capacitor c=0.0101988f \
 //x=4.425 //y=0 //x2=5.365 //y2=1.18
cc_57 ( N_noxref_1_c_27_p N_noxref_8_c_991_n ) capacitor c=0.00469062f \
 //x=6.49 //y=0 //x2=5.365 //y2=1.18
cc_58 ( N_noxref_1_c_2_p N_noxref_8_c_991_n ) capacitor c=0.0453089f //x=3.33 \
 //y=0 //x2=5.365 //y2=1.18
cc_59 ( N_noxref_1_c_5_p N_noxref_8_c_991_n ) capacitor c=0.00131864f \
 //x=11.59 //y=0 //x2=5.365 //y2=1.18
cc_60 ( N_noxref_1_M2_noxref_d N_noxref_8_c_991_n ) capacitor c=0.00960943f \
 //x=4.32 //y=0.865 //x2=5.365 //y2=1.18
cc_61 ( N_noxref_1_c_6_p N_noxref_8_c_998_n ) capacitor c=0.00726481f \
 //x=11.47 //y=0 //x2=2.265 //y2=1.18
cc_62 ( N_noxref_1_c_6_p N_noxref_8_c_999_n ) capacitor c=0.0769222f //x=11.47 \
 //y=0 //x2=8.695 //y2=1.18
cc_63 ( N_noxref_1_c_27_p N_noxref_8_c_999_n ) capacitor c=0.00788597f \
 //x=6.49 //y=0 //x2=8.695 //y2=1.18
cc_64 ( N_noxref_1_c_37_p N_noxref_8_c_999_n ) capacitor c=0.00974891f \
 //x=7.755 //y=0 //x2=8.695 //y2=1.18
cc_65 ( N_noxref_1_c_43_p N_noxref_8_c_999_n ) capacitor c=0.00446008f \
 //x=9.82 //y=0 //x2=8.695 //y2=1.18
cc_66 ( N_noxref_1_c_3_p N_noxref_8_c_999_n ) capacitor c=0.0384314f //x=6.66 \
 //y=0 //x2=8.695 //y2=1.18
cc_67 ( N_noxref_1_c_5_p N_noxref_8_c_999_n ) capacitor c=0.0014968f //x=11.59 \
 //y=0 //x2=8.695 //y2=1.18
cc_68 ( N_noxref_1_M4_noxref_d N_noxref_8_c_999_n ) capacitor c=0.00960943f \
 //x=7.65 //y=0.865 //x2=8.695 //y2=1.18
cc_69 ( N_noxref_1_c_6_p N_noxref_8_c_1006_n ) capacitor c=0.00664346f \
 //x=11.47 //y=0 //x2=5.595 //y2=1.18
cc_70 ( N_noxref_1_c_4_p N_noxref_8_c_1007_n ) capacitor c=0.00470139f \
 //x=9.99 //y=0 //x2=10.615 //y2=4.07
cc_71 ( N_noxref_1_c_4_p N_noxref_8_c_1008_n ) capacitor c=0.0465261f //x=9.99 \
 //y=0 //x2=9.165 //y2=1.645
cc_72 ( N_noxref_1_M6_noxref_s N_noxref_8_c_1008_n ) capacitor c=3.58337e-19 \
 //x=10.485 //y=0.37 //x2=9.165 //y2=1.645
cc_73 ( N_noxref_1_c_3_p N_noxref_8_c_1010_n ) capacitor c=0.00109945f \
 //x=6.66 //y=0 //x2=9.25 //y2=4.07
cc_74 ( N_noxref_1_c_6_p N_noxref_8_c_1011_n ) capacitor c=0.00203213f \
 //x=11.47 //y=0 //x2=10.73 //y2=2.085
cc_75 ( N_noxref_1_c_75_p N_noxref_8_c_1011_n ) capacitor c=8.01092e-19 \
 //x=11.02 //y=0.535 //x2=10.73 //y2=2.085
cc_76 ( N_noxref_1_c_4_p N_noxref_8_c_1011_n ) capacitor c=0.029021f //x=9.99 \
 //y=0 //x2=10.73 //y2=2.085
cc_77 ( N_noxref_1_c_5_p N_noxref_8_c_1011_n ) capacitor c=0.00118981f \
 //x=11.59 //y=0 //x2=10.73 //y2=2.085
cc_78 ( N_noxref_1_M6_noxref_s N_noxref_8_c_1011_n ) capacitor c=0.0107239f \
 //x=10.485 //y=0.37 //x2=10.73 //y2=2.085
cc_79 ( N_noxref_1_c_75_p N_noxref_8_c_1016_n ) capacitor c=0.0120496f \
 //x=11.02 //y=0.535 //x2=10.84 //y2=0.91
cc_80 ( N_noxref_1_M6_noxref_s N_noxref_8_c_1016_n ) capacitor c=0.031817f \
 //x=10.485 //y=0.37 //x2=10.84 //y2=0.91
cc_81 ( N_noxref_1_c_4_p N_noxref_8_c_1018_n ) capacitor c=0.00550606f \
 //x=9.99 //y=0 //x2=10.84 //y2=1.92
cc_82 ( N_noxref_1_M6_noxref_s N_noxref_8_c_1019_n ) capacitor c=0.00483274f \
 //x=10.485 //y=0.37 //x2=11.215 //y2=0.755
cc_83 ( N_noxref_1_c_83_p N_noxref_8_c_1020_n ) capacitor c=0.0118602f \
 //x=11.505 //y=0.535 //x2=11.37 //y2=0.91
cc_84 ( N_noxref_1_M6_noxref_s N_noxref_8_c_1020_n ) capacitor c=0.0143355f \
 //x=10.485 //y=0.37 //x2=11.37 //y2=0.91
cc_85 ( N_noxref_1_M6_noxref_s N_noxref_8_c_1022_n ) capacitor c=0.0074042f \
 //x=10.485 //y=0.37 //x2=11.37 //y2=1.255
cc_86 ( N_noxref_1_c_75_p N_noxref_8_c_1023_n ) capacitor c=2.1838e-19 \
 //x=11.02 //y=0.535 //x2=10.73 //y2=2.085
cc_87 ( N_noxref_1_c_4_p N_noxref_8_c_1023_n ) capacitor c=0.0108179f //x=9.99 \
 //y=0 //x2=10.73 //y2=2.085
cc_88 ( N_noxref_1_M6_noxref_s N_noxref_8_c_1023_n ) capacitor c=0.00650244f \
 //x=10.485 //y=0.37 //x2=10.73 //y2=2.085
cc_89 ( N_noxref_1_c_6_p N_noxref_8_M1_noxref_d ) capacitor c=2.00936e-19 \
 //x=11.47 //y=0 //x2=1.96 //y2=0.905
cc_90 ( N_noxref_1_c_2_p N_noxref_8_M1_noxref_d ) capacitor c=0.00141366f \
 //x=3.33 //y=0 //x2=1.96 //y2=0.905
cc_91 ( N_noxref_1_M0_noxref_d N_noxref_8_M1_noxref_d ) capacitor \
 c=0.00128667f //x=0.99 //y=0.865 //x2=1.96 //y2=0.905
cc_92 ( N_noxref_1_c_6_p N_noxref_8_M3_noxref_d ) capacitor c=2.00936e-19 \
 //x=11.47 //y=0 //x2=5.29 //y2=0.905
cc_93 ( N_noxref_1_c_3_p N_noxref_8_M3_noxref_d ) capacitor c=0.0014176f \
 //x=6.66 //y=0 //x2=5.29 //y2=0.905
cc_94 ( N_noxref_1_M2_noxref_d N_noxref_8_M3_noxref_d ) capacitor c=0.0012247f \
 //x=4.32 //y=0.865 //x2=5.29 //y2=0.905
cc_95 ( N_noxref_1_c_6_p N_noxref_8_M5_noxref_d ) capacitor c=2.00936e-19 \
 //x=11.47 //y=0 //x2=8.62 //y2=0.905
cc_96 ( N_noxref_1_c_3_p N_noxref_8_M5_noxref_d ) capacitor c=8.62423e-19 \
 //x=6.66 //y=0 //x2=8.62 //y2=0.905
cc_97 ( N_noxref_1_c_4_p N_noxref_8_M5_noxref_d ) capacitor c=0.00523456f \
 //x=9.99 //y=0 //x2=8.62 //y2=0.905
cc_98 ( N_noxref_1_M4_noxref_d N_noxref_8_M5_noxref_d ) capacitor c=0.0012247f \
 //x=7.65 //y=0.865 //x2=8.62 //y2=0.905
cc_99 ( N_noxref_1_c_6_p N_noxref_9_c_1210_n ) capacitor c=0.00712276f \
 //x=11.47 //y=0 //x2=1.58 //y2=1.58
cc_100 ( N_noxref_1_c_11_p N_noxref_9_c_1210_n ) capacitor c=0.00111428f \
 //x=1.095 //y=0 //x2=1.58 //y2=1.58
cc_101 ( N_noxref_1_c_18_p N_noxref_9_c_1210_n ) capacitor c=0.00180846f \
 //x=3.16 //y=0 //x2=1.58 //y2=1.58
cc_102 ( N_noxref_1_M0_noxref_d N_noxref_9_c_1210_n ) capacitor c=0.00942524f \
 //x=0.99 //y=0.865 //x2=1.58 //y2=1.58
cc_103 ( N_noxref_1_c_6_p N_noxref_9_c_1214_n ) capacitor c=0.00723598f \
 //x=11.47 //y=0 //x2=1.665 //y2=0.615
cc_104 ( N_noxref_1_c_18_p N_noxref_9_c_1214_n ) capacitor c=0.0146208f \
 //x=3.16 //y=0 //x2=1.665 //y2=0.615
cc_105 ( N_noxref_1_c_5_p N_noxref_9_c_1214_n ) capacitor c=0.00145873f \
 //x=11.59 //y=0 //x2=1.665 //y2=0.615
cc_106 ( N_noxref_1_M0_noxref_d N_noxref_9_c_1214_n ) capacitor c=0.0336822f \
 //x=0.99 //y=0.865 //x2=1.665 //y2=0.615
cc_107 ( N_noxref_1_c_1_p N_noxref_9_c_1218_n ) capacitor c=2.91423e-19 \
 //x=0.74 //y=0 //x2=1.665 //y2=1.495
cc_108 ( N_noxref_1_c_6_p N_noxref_9_c_1219_n ) capacitor c=0.0126964f \
 //x=11.47 //y=0 //x2=2.55 //y2=0.53
cc_109 ( N_noxref_1_c_18_p N_noxref_9_c_1219_n ) capacitor c=0.0373026f \
 //x=3.16 //y=0 //x2=2.55 //y2=0.53
cc_110 ( N_noxref_1_c_5_p N_noxref_9_c_1219_n ) capacitor c=0.00199095f \
 //x=11.59 //y=0 //x2=2.55 //y2=0.53
cc_111 ( N_noxref_1_c_6_p N_noxref_9_c_1222_n ) capacitor c=0.00212661f \
 //x=11.47 //y=0 //x2=2.635 //y2=0.615
cc_112 ( N_noxref_1_c_18_p N_noxref_9_c_1222_n ) capacitor c=0.0143168f \
 //x=3.16 //y=0 //x2=2.635 //y2=0.615
cc_113 ( N_noxref_1_c_2_p N_noxref_9_c_1222_n ) capacitor c=0.0555325f \
 //x=3.33 //y=0 //x2=2.635 //y2=0.615
cc_114 ( N_noxref_1_c_5_p N_noxref_9_c_1222_n ) capacitor c=0.00145873f \
 //x=11.59 //y=0 //x2=2.635 //y2=0.615
cc_115 ( N_noxref_1_c_6_p N_noxref_9_M0_noxref_s ) capacitor c=0.00723598f \
 //x=11.47 //y=0 //x2=0.56 //y2=0.365
cc_116 ( N_noxref_1_c_11_p N_noxref_9_M0_noxref_s ) capacitor c=0.0145422f \
 //x=1.095 //y=0 //x2=0.56 //y2=0.365
cc_117 ( N_noxref_1_c_1_p N_noxref_9_M0_noxref_s ) capacitor c=0.0598652f \
 //x=0.74 //y=0 //x2=0.56 //y2=0.365
cc_118 ( N_noxref_1_c_2_p N_noxref_9_M0_noxref_s ) capacitor c=0.00181744f \
 //x=3.33 //y=0 //x2=0.56 //y2=0.365
cc_119 ( N_noxref_1_c_5_p N_noxref_9_M0_noxref_s ) capacitor c=0.00145873f \
 //x=11.59 //y=0 //x2=0.56 //y2=0.365
cc_120 ( N_noxref_1_M0_noxref_d N_noxref_9_M0_noxref_s ) capacitor \
 c=0.0333456f //x=0.99 //y=0.865 //x2=0.56 //y2=0.365
cc_121 ( N_noxref_1_c_21_p N_noxref_10_c_1264_n ) capacitor c=8.01905e-19 \
 //x=4.425 //y=0 //x2=4.91 //y2=1.58
cc_122 ( N_noxref_1_c_27_p N_noxref_10_c_1264_n ) capacitor c=0.00161527f \
 //x=6.49 //y=0 //x2=4.91 //y2=1.58
cc_123 ( N_noxref_1_M2_noxref_d N_noxref_10_c_1264_n ) capacitor c=0.0073276f \
 //x=4.32 //y=0.865 //x2=4.91 //y2=1.58
cc_124 ( N_noxref_1_c_6_p N_noxref_10_c_1267_n ) capacitor c=0.00212661f \
 //x=11.47 //y=0 //x2=4.995 //y2=0.615
cc_125 ( N_noxref_1_c_27_p N_noxref_10_c_1267_n ) capacitor c=0.0143168f \
 //x=6.49 //y=0 //x2=4.995 //y2=0.615
cc_126 ( N_noxref_1_c_5_p N_noxref_10_c_1267_n ) capacitor c=0.00145873f \
 //x=11.59 //y=0 //x2=4.995 //y2=0.615
cc_127 ( N_noxref_1_M2_noxref_d N_noxref_10_c_1267_n ) capacitor c=0.0336662f \
 //x=4.32 //y=0.865 //x2=4.995 //y2=0.615
cc_128 ( N_noxref_1_c_2_p N_noxref_10_c_1271_n ) capacitor c=2.91423e-19 \
 //x=3.33 //y=0 //x2=4.995 //y2=1.495
cc_129 ( N_noxref_1_c_6_p N_noxref_10_c_1272_n ) capacitor c=0.00884129f \
 //x=11.47 //y=0 //x2=5.88 //y2=0.53
cc_130 ( N_noxref_1_c_27_p N_noxref_10_c_1272_n ) capacitor c=0.0373651f \
 //x=6.49 //y=0 //x2=5.88 //y2=0.53
cc_131 ( N_noxref_1_c_5_p N_noxref_10_c_1272_n ) capacitor c=0.00199095f \
 //x=11.59 //y=0 //x2=5.88 //y2=0.53
cc_132 ( N_noxref_1_c_6_p N_noxref_10_c_1275_n ) capacitor c=0.00212661f \
 //x=11.47 //y=0 //x2=5.965 //y2=0.615
cc_133 ( N_noxref_1_c_27_p N_noxref_10_c_1275_n ) capacitor c=0.0143168f \
 //x=6.49 //y=0 //x2=5.965 //y2=0.615
cc_134 ( N_noxref_1_c_3_p N_noxref_10_c_1275_n ) capacitor c=0.054903f \
 //x=6.66 //y=0 //x2=5.965 //y2=0.615
cc_135 ( N_noxref_1_c_5_p N_noxref_10_c_1275_n ) capacitor c=0.00145873f \
 //x=11.59 //y=0 //x2=5.965 //y2=0.615
cc_136 ( N_noxref_1_c_6_p N_noxref_10_M2_noxref_s ) capacitor c=0.00212661f \
 //x=11.47 //y=0 //x2=3.89 //y2=0.365
cc_137 ( N_noxref_1_c_21_p N_noxref_10_M2_noxref_s ) capacitor c=0.0143168f \
 //x=4.425 //y=0 //x2=3.89 //y2=0.365
cc_138 ( N_noxref_1_c_2_p N_noxref_10_M2_noxref_s ) capacitor c=0.0561199f \
 //x=3.33 //y=0 //x2=3.89 //y2=0.365
cc_139 ( N_noxref_1_c_3_p N_noxref_10_M2_noxref_s ) capacitor c=0.0022128f \
 //x=6.66 //y=0 //x2=3.89 //y2=0.365
cc_140 ( N_noxref_1_c_5_p N_noxref_10_M2_noxref_s ) capacitor c=0.00145873f \
 //x=11.59 //y=0 //x2=3.89 //y2=0.365
cc_141 ( N_noxref_1_M2_noxref_d N_noxref_10_M2_noxref_s ) capacitor \
 c=0.0333038f //x=4.32 //y=0.865 //x2=3.89 //y2=0.365
cc_142 ( N_noxref_1_c_37_p N_noxref_11_c_1320_n ) capacitor c=8.01912e-19 \
 //x=7.755 //y=0 //x2=8.24 //y2=1.58
cc_143 ( N_noxref_1_c_43_p N_noxref_11_c_1320_n ) capacitor c=0.00161527f \
 //x=9.82 //y=0 //x2=8.24 //y2=1.58
cc_144 ( N_noxref_1_M4_noxref_d N_noxref_11_c_1320_n ) capacitor c=0.0073482f \
 //x=7.65 //y=0.865 //x2=8.24 //y2=1.58
cc_145 ( N_noxref_1_c_6_p N_noxref_11_c_1323_n ) capacitor c=0.00212661f \
 //x=11.47 //y=0 //x2=8.325 //y2=0.615
cc_146 ( N_noxref_1_c_43_p N_noxref_11_c_1323_n ) capacitor c=0.0143168f \
 //x=9.82 //y=0 //x2=8.325 //y2=0.615
cc_147 ( N_noxref_1_c_5_p N_noxref_11_c_1323_n ) capacitor c=0.00145873f \
 //x=11.59 //y=0 //x2=8.325 //y2=0.615
cc_148 ( N_noxref_1_M4_noxref_d N_noxref_11_c_1323_n ) capacitor c=0.0336662f \
 //x=7.65 //y=0.865 //x2=8.325 //y2=0.615
cc_149 ( N_noxref_1_c_3_p N_noxref_11_c_1327_n ) capacitor c=2.91423e-19 \
 //x=6.66 //y=0 //x2=8.325 //y2=1.495
cc_150 ( N_noxref_1_c_6_p N_noxref_11_c_1328_n ) capacitor c=0.0127012f \
 //x=11.47 //y=0 //x2=9.21 //y2=0.53
cc_151 ( N_noxref_1_c_43_p N_noxref_11_c_1328_n ) capacitor c=0.0371788f \
 //x=9.82 //y=0 //x2=9.21 //y2=0.53
cc_152 ( N_noxref_1_c_5_p N_noxref_11_c_1328_n ) capacitor c=0.00199095f \
 //x=11.59 //y=0 //x2=9.21 //y2=0.53
cc_153 ( N_noxref_1_c_6_p N_noxref_11_c_1331_n ) capacitor c=0.00719686f \
 //x=11.47 //y=0 //x2=9.295 //y2=0.615
cc_154 ( N_noxref_1_c_43_p N_noxref_11_c_1331_n ) capacitor c=0.0144285f \
 //x=9.82 //y=0 //x2=9.295 //y2=0.615
cc_155 ( N_noxref_1_c_155_p N_noxref_11_c_1331_n ) capacitor c=0.00114292f \
 //x=10.62 //y=0.45 //x2=9.295 //y2=0.615
cc_156 ( N_noxref_1_c_4_p N_noxref_11_c_1331_n ) capacitor c=0.042944f \
 //x=9.99 //y=0 //x2=9.295 //y2=0.615
cc_157 ( N_noxref_1_c_5_p N_noxref_11_c_1331_n ) capacitor c=0.00145029f \
 //x=11.59 //y=0 //x2=9.295 //y2=0.615
cc_158 ( N_noxref_1_c_6_p N_noxref_11_M4_noxref_s ) capacitor c=0.00212661f \
 //x=11.47 //y=0 //x2=7.22 //y2=0.365
cc_159 ( N_noxref_1_c_37_p N_noxref_11_M4_noxref_s ) capacitor c=0.0143168f \
 //x=7.755 //y=0 //x2=7.22 //y2=0.365
cc_160 ( N_noxref_1_c_3_p N_noxref_11_M4_noxref_s ) capacitor c=0.0555232f \
 //x=6.66 //y=0 //x2=7.22 //y2=0.365
cc_161 ( N_noxref_1_c_4_p N_noxref_11_M4_noxref_s ) capacitor c=0.00201114f \
 //x=9.99 //y=0 //x2=7.22 //y2=0.365
cc_162 ( N_noxref_1_c_5_p N_noxref_11_M4_noxref_s ) capacitor c=0.00145873f \
 //x=11.59 //y=0 //x2=7.22 //y2=0.365
cc_163 ( N_noxref_1_M4_noxref_d N_noxref_11_M4_noxref_s ) capacitor \
 c=0.0333038f //x=7.65 //y=0.865 //x2=7.22 //y2=0.365
cc_164 ( N_noxref_1_M6_noxref_s N_noxref_11_M4_noxref_s ) capacitor \
 c=0.00114292f //x=10.485 //y=0.37 //x2=7.22 //y2=0.365
cc_165 ( N_noxref_1_c_6_p N_noxref_12_c_1378_n ) capacitor c=0.0021242f \
 //x=11.47 //y=0 //x2=11.385 //y2=2.08
cc_166 ( N_noxref_1_c_5_p N_noxref_12_c_1378_n ) capacitor c=0.0301661f \
 //x=11.59 //y=0 //x2=11.385 //y2=2.08
cc_167 ( N_noxref_1_M6_noxref_s N_noxref_12_c_1378_n ) capacitor c=0.00999304f \
 //x=10.485 //y=0.37 //x2=11.385 //y2=2.08
cc_168 ( N_noxref_1_c_4_p N_noxref_12_c_1381_n ) capacitor c=8.10282e-19 \
 //x=9.99 //y=0 //x2=11.47 //y2=4.495
cc_169 ( N_noxref_1_c_6_p N_noxref_12_M6_noxref_d ) capacitor c=0.00194883f \
 //x=11.47 //y=0 //x2=10.915 //y2=0.91
cc_170 ( N_noxref_1_c_75_p N_noxref_12_M6_noxref_d ) capacitor c=0.0146043f \
 //x=11.02 //y=0.535 //x2=10.915 //y2=0.91
cc_171 ( N_noxref_1_c_4_p N_noxref_12_M6_noxref_d ) capacitor c=0.00924905f \
 //x=9.99 //y=0 //x2=10.915 //y2=0.91
cc_172 ( N_noxref_1_c_5_p N_noxref_12_M6_noxref_d ) capacitor c=0.00973758f \
 //x=11.59 //y=0 //x2=10.915 //y2=0.91
cc_173 ( N_noxref_1_M6_noxref_s N_noxref_12_M6_noxref_d ) capacitor \
 c=0.076995f //x=10.485 //y=0.37 //x2=10.915 //y2=0.91
cc_174 ( N_noxref_2_c_175_n N_noxref_3_c_310_n ) capacitor c=0.0450989f \
 //x=3.33 //y=7.4 //x2=3.995 //y2=5.21
cc_175 ( N_noxref_2_M10_noxref_d N_noxref_3_c_310_n ) capacitor c=0.0208274f \
 //x=2.405 //y=5.025 //x2=3.995 //y2=5.21
cc_176 ( N_noxref_2_c_174_n N_noxref_3_c_312_n ) capacitor c=2.85394e-19 \
 //x=0.74 //y=7.4 //x2=2.225 //y2=5.21
cc_177 ( N_noxref_2_c_175_n N_noxref_3_c_312_n ) capacitor c=3.35418e-19 \
 //x=3.33 //y=7.4 //x2=2.225 //y2=5.21
cc_178 ( N_noxref_2_M10_noxref_d N_noxref_3_c_312_n ) capacitor c=6.02701e-19 \
 //x=2.405 //y=5.025 //x2=2.225 //y2=5.21
cc_179 ( N_noxref_2_c_184_p N_noxref_3_c_315_n ) capacitor c=5.81484e-19 \
 //x=1.585 //y=7.4 //x2=2.025 //y2=5.21
cc_180 ( N_noxref_2_c_185_p N_noxref_3_c_315_n ) capacitor c=5.32614e-19 \
 //x=2.465 //y=7.4 //x2=2.025 //y2=5.21
cc_181 ( N_noxref_2_M8_noxref_d N_noxref_3_c_315_n ) capacitor c=0.0129506f \
 //x=1.525 //y=5.025 //x2=2.025 //y2=5.21
cc_182 ( N_noxref_2_c_174_n N_noxref_3_c_318_n ) capacitor c=0.00914165f \
 //x=0.74 //y=7.4 //x2=1.315 //y2=5.21
cc_183 ( N_noxref_2_M7_noxref_s N_noxref_3_c_318_n ) capacitor c=0.0872987f \
 //x=0.655 //y=5.025 //x2=1.315 //y2=5.21
cc_184 ( N_noxref_2_c_174_n N_noxref_3_c_320_n ) capacitor c=6.65559e-19 \
 //x=0.74 //y=7.4 //x2=2.11 //y2=5.295
cc_185 ( N_noxref_2_c_175_n N_noxref_3_c_320_n ) capacitor c=0.00985441f \
 //x=3.33 //y=7.4 //x2=2.11 //y2=5.295
cc_186 ( N_noxref_2_M10_noxref_d N_noxref_3_c_320_n ) capacitor c=0.0873334f \
 //x=2.405 //y=5.025 //x2=2.11 //y2=5.295
cc_187 ( N_noxref_2_c_175_n N_noxref_3_c_323_n ) capacitor c=0.0674112f \
 //x=3.33 //y=7.4 //x2=4.11 //y2=5.21
cc_188 ( N_noxref_2_M10_noxref_d N_noxref_3_c_323_n ) capacitor c=0.00235009f \
 //x=2.405 //y=5.025 //x2=4.11 //y2=5.21
cc_189 ( N_noxref_2_c_178_n N_noxref_3_c_325_n ) capacitor c=0.00242047f \
 //x=11.47 //y=7.4 //x2=4.905 //y2=6.91
cc_190 ( N_noxref_2_c_195_p N_noxref_3_c_326_n ) capacitor c=0.0564858f \
 //x=11.47 //y=7.4 //x2=4.195 //y2=6.91
cc_191 ( N_noxref_2_c_196_p N_noxref_3_c_326_n ) capacitor c=0.104695f \
 //x=6.49 //y=7.4 //x2=4.195 //y2=6.91
cc_192 ( N_noxref_2_c_178_n N_noxref_3_c_326_n ) capacitor c=0.00118756f \
 //x=11.47 //y=7.4 //x2=4.195 //y2=6.91
cc_193 ( N_noxref_2_c_178_n N_noxref_3_c_329_n ) capacitor c=0.00360374f \
 //x=11.47 //y=7.4 //x2=5.785 //y2=6.91
cc_194 ( N_noxref_2_c_178_n N_noxref_3_c_330_n ) capacitor c=0.00118056f \
 //x=11.47 //y=7.4 //x2=4.99 //y2=6.91
cc_195 ( N_noxref_2_c_195_p N_noxref_3_M7_noxref_d ) capacitor c=0.0073428f \
 //x=11.47 //y=7.4 //x2=1.085 //y2=5.025
cc_196 ( N_noxref_2_c_184_p N_noxref_3_M7_noxref_d ) capacitor c=0.0128578f \
 //x=1.585 //y=7.4 //x2=1.085 //y2=5.025
cc_197 ( N_noxref_2_c_178_n N_noxref_3_M7_noxref_d ) capacitor c=0.00118659f \
 //x=11.47 //y=7.4 //x2=1.085 //y2=5.025
cc_198 ( N_noxref_2_M8_noxref_d N_noxref_3_M7_noxref_d ) capacitor c=0.067695f \
 //x=1.525 //y=5.025 //x2=1.085 //y2=5.025
cc_199 ( N_noxref_2_M10_noxref_d N_noxref_3_M7_noxref_d ) capacitor \
 c=0.00105738f //x=2.405 //y=5.025 //x2=1.085 //y2=5.025
cc_200 ( N_noxref_2_c_195_p N_noxref_3_M9_noxref_d ) capacitor c=0.00423818f \
 //x=11.47 //y=7.4 //x2=1.965 //y2=5.025
cc_201 ( N_noxref_2_c_185_p N_noxref_3_M9_noxref_d ) capacitor c=0.0126484f \
 //x=2.465 //y=7.4 //x2=1.965 //y2=5.025
cc_202 ( N_noxref_2_c_178_n N_noxref_3_M9_noxref_d ) capacitor c=0.00118756f \
 //x=11.47 //y=7.4 //x2=1.965 //y2=5.025
cc_203 ( N_noxref_2_M7_noxref_s N_noxref_3_M9_noxref_d ) capacitor \
 c=0.00103189f //x=0.655 //y=5.025 //x2=1.965 //y2=5.025
cc_204 ( N_noxref_2_M8_noxref_d N_noxref_3_M9_noxref_d ) capacitor \
 c=0.0653408f //x=1.525 //y=5.025 //x2=1.965 //y2=5.025
cc_205 ( N_noxref_2_c_175_n N_noxref_3_M12_noxref_d ) capacitor c=8.96067e-19 \
 //x=3.33 //y=7.4 //x2=4.845 //y2=5.025
cc_206 ( N_noxref_2_c_176_n N_noxref_3_M12_noxref_d ) capacitor c=8.88629e-19 \
 //x=6.66 //y=7.4 //x2=4.845 //y2=5.025
cc_207 ( N_noxref_2_c_176_n N_noxref_3_M14_noxref_d ) capacitor c=0.0575594f \
 //x=6.66 //y=7.4 //x2=5.725 //y2=5.025
cc_208 ( N_noxref_2_c_175_n N_noxref_4_c_426_n ) capacitor c=0.0345509f \
 //x=3.33 //y=7.4 //x2=4.325 //y2=4.44
cc_209 ( N_noxref_2_M7_noxref_s N_noxref_4_c_426_n ) capacitor c=5.85646e-19 \
 //x=0.655 //y=5.025 //x2=4.325 //y2=4.44
cc_210 ( N_noxref_2_M10_noxref_d N_noxref_4_c_426_n ) capacitor c=0.00369846f \
 //x=2.405 //y=5.025 //x2=4.325 //y2=4.44
cc_211 ( N_noxref_2_c_174_n N_noxref_4_c_429_n ) capacitor c=0.00752464f \
 //x=0.74 //y=7.4 //x2=0.855 //y2=4.44
cc_212 ( N_noxref_2_M7_noxref_s N_noxref_4_c_429_n ) capacitor c=0.00298197f \
 //x=0.655 //y=5.025 //x2=0.855 //y2=4.44
cc_213 ( N_noxref_2_c_174_n N_noxref_4_c_401_n ) capacitor c=0.0253776f \
 //x=0.74 //y=7.4 //x2=0.74 //y2=2.08