// File: VOTER3X1.spi.pex
// Created: Tue Oct 15 15:53:28 2024
// Program "Calibre xRC"
// Version "v2023.2_27.15"
// Nominal Temperature: 30C
// Circuit Temperature: 30C
// 
simulator lang=spectre
subckt PM_VOTER3X1\%GND ( 1 23 27 30 35 43 49 55 63 74 79 83 96 99 101 108 115 \
 116 117 118 )
c173 ( 118 0 ) capacitor c=0.0616426f //x=10.485 //y=0.37
c174 ( 117 0 ) capacitor c=0.021507f //x=7.65 //y=0.865
c175 ( 116 0 ) capacitor c=0.021507f //x=4.32 //y=0.865
c176 ( 115 0 ) capacitor c=0.0208055f //x=0.99 //y=0.865
c177 ( 108 0 ) capacitor c=0.234725f //x=11.59 //y=0
c178 ( 101 0 ) capacitor c=0.102124f //x=9.99 //y=0
c179 ( 100 0 ) capacitor c=0.00440095f //x=7.84 //y=0
c180 ( 99 0 ) capacitor c=0.101477f //x=6.66 //y=0
c181 ( 98 0 ) capacitor c=0.00440095f //x=4.44 //y=0
c182 ( 96 0 ) capacitor c=0.118054f //x=3.33 //y=0
c183 ( 95 0 ) capacitor c=0.00440095f //x=1.18 //y=0
c184 ( 86 0 ) capacitor c=0.00583665f //x=11.59 //y=0.45
c185 ( 83 0 ) capacitor c=0.00542558f //x=11.505 //y=0.535
c186 ( 82 0 ) capacitor c=0.00479856f //x=11.105 //y=0.45
c187 ( 79 0 ) capacitor c=0.00707849f //x=11.02 //y=0.535
c188 ( 74 0 ) capacitor c=0.00588377f //x=10.62 //y=0.45
c189 ( 71 0 ) capacitor c=0.0190475f //x=10.535 //y=0
c190 ( 63 0 ) capacitor c=0.0749789f //x=9.82 //y=0
c191 ( 55 0 ) capacitor c=0.0389876f //x=7.755 //y=0
c192 ( 49 0 ) capacitor c=0.0716428f //x=6.49 //y=0
c193 ( 43 0 ) capacitor c=0.0388276f //x=4.425 //y=0
c194 ( 35 0 ) capacitor c=0.0717807f //x=3.16 //y=0
c195 ( 30 0 ) capacitor c=0.177035f //x=0.74 //y=0
c196 ( 27 0 ) capacitor c=0.0422406f //x=1.095 //y=0
c197 ( 23 0 ) capacitor c=0.417871f //x=11.47 //y=0
r198 (  107 108 ) resistor r=4.30252 //w=0.357 //l=0.12 //layer=li \
 //thickness=0.1 //x=11.47 //y=0 //x2=11.59 //y2=0
r199 (  105 107 ) resistor r=13.0868 //w=0.357 //l=0.365 //layer=li \
 //thickness=0.1 //x=11.105 //y=0 //x2=11.47 //y2=0
r200 (  104 105 ) resistor r=13.4454 //w=0.357 //l=0.375 //layer=li \
 //thickness=0.1 //x=10.73 //y=0 //x2=11.105 //y2=0
r201 (  102 104 ) resistor r=3.94398 //w=0.357 //l=0.11 //layer=li \
 //thickness=0.1 //x=10.62 //y=0 //x2=10.73 //y2=0
r202 (  87 118 ) resistor r=5.4201 //w=0.17 //l=0.085 //layer=li \
 //thickness=0.1 //x=11.59 //y=0.62 //x2=11.59 //y2=0.535
r203 (  87 118 ) resistor r=41.4118 //w=0.187 //l=0.605 //layer=li \
 //thickness=0.1 //x=11.59 //y=0.62 //x2=11.59 //y2=1.225
r204 (  86 118 ) resistor r=5.4201 //w=0.17 //l=0.085 //layer=li \
 //thickness=0.1 //x=11.59 //y=0.45 //x2=11.59 //y2=0.535
r205 (  85 108 ) resistor r=5.03728 //w=0.34 //l=0.17 //layer=li \
 //thickness=0.1 //x=11.59 //y=0.17 //x2=11.59 //y2=0
r206 (  85 86 ) resistor r=19.1658 //w=0.187 //l=0.28 //layer=li \
 //thickness=0.1 //x=11.59 //y=0.17 //x2=11.59 //y2=0.45
r207 (  84 118 ) resistor r=5.4201 //w=0.17 //l=0.085 //layer=li \
 //thickness=0.1 //x=11.19 //y=0.535 //x2=11.105 //y2=0.535
r208 (  83 118 ) resistor r=1.40859 //w=0.34 //l=0.085 //layer=li \
 //thickness=0.1 //x=11.505 //y=0.535 //x2=11.59 //y2=0.535
r209 (  83 84 ) resistor r=21.5615 //w=0.187 //l=0.315 //layer=li \
 //thickness=0.1 //x=11.505 //y=0.535 //x2=11.19 //y2=0.535
r210 (  82 118 ) resistor r=1.40859 //w=0.34 //l=0.085 //layer=li \
 //thickness=0.1 //x=11.105 //y=0.45 //x2=11.105 //y2=0.535
r211 (  81 105 ) resistor r=5.03728 //w=0.34 //l=0.17 //layer=li \
 //thickness=0.1 //x=11.105 //y=0.17 //x2=11.105 //y2=0
r212 (  81 82 ) resistor r=19.1658 //w=0.187 //l=0.28 //layer=li \
 //thickness=0.1 //x=11.105 //y=0.17 //x2=11.105 //y2=0.45
r213 (  80 118 ) resistor r=1.40859 //w=0.34 //l=0.085 //layer=li \
 //thickness=0.1 //x=10.705 //y=0.535 //x2=10.62 //y2=0.535
r214 (  79 118 ) resistor r=5.4201 //w=0.17 //l=0.085 //layer=li \
 //thickness=0.1 //x=11.02 //y=0.535 //x2=11.105 //y2=0.535
r215 (  79 80 ) resistor r=21.5615 //w=0.187 //l=0.315 //layer=li \
 //thickness=0.1 //x=11.02 //y=0.535 //x2=10.705 //y2=0.535
r216 (  75 118 ) resistor r=5.4201 //w=0.17 //l=0.085 //layer=li \
 //thickness=0.1 //x=10.62 //y=0.62 //x2=10.62 //y2=0.535
r217 (  75 118 ) resistor r=41.4118 //w=0.187 //l=0.605 //layer=li \
 //thickness=0.1 //x=10.62 //y=0.62 //x2=10.62 //y2=1.225
r218 (  74 118 ) resistor r=5.4201 //w=0.17 //l=0.085 //layer=li \
 //thickness=0.1 //x=10.62 //y=0.45 //x2=10.62 //y2=0.535
r219 (  73 102 ) resistor r=5.03728 //w=0.34 //l=0.17 //layer=li \
 //thickness=0.1 //x=10.62 //y=0.17 //x2=10.62 //y2=0
r220 (  73 74 ) resistor r=19.1658 //w=0.187 //l=0.28 //layer=li \
 //thickness=0.1 //x=10.62 //y=0.17 //x2=10.62 //y2=0.45
r221 (  72 101 ) resistor r=5.4201 //w=0.34 //l=0.17 //layer=li \
 //thickness=0.1 //x=10.16 //y=0 //x2=9.99 //y2=0
r222 (  71 102 ) resistor r=3.04762 //w=0.357 //l=0.085 //layer=li \
 //thickness=0.1 //x=10.535 //y=0 //x2=10.62 //y2=0
r223 (  71 72 ) resistor r=13.4454 //w=0.357 //l=0.375 //layer=li \
 //thickness=0.1 //x=10.535 //y=0 //x2=10.16 //y2=0
r224 (  66 68 ) resistor r=39.7983 //w=0.357 //l=1.11 //layer=li \
 //thickness=0.1 //x=8.14 //y=0 //x2=9.25 //y2=0
r225 (  64 100 ) resistor r=2.94794 //w=0.34 //l=0.085 //layer=li \
 //thickness=0.1 //x=7.925 //y=0 //x2=7.84 //y2=0
r226 (  64 66 ) resistor r=7.70868 //w=0.357 //l=0.215 //layer=li \
 //thickness=0.1 //x=7.925 //y=0 //x2=8.14 //y2=0
r227 (  63 101 ) resistor r=5.4201 //w=0.34 //l=0.17 //layer=li \
 //thickness=0.1 //x=9.82 //y=0 //x2=9.99 //y2=0
r228 (  63 68 ) resistor r=20.437 //w=0.357 //l=0.57 //layer=li \
 //thickness=0.1 //x=9.82 //y=0 //x2=9.25 //y2=0
r229 (  59 100 ) resistor r=4.11603 //w=0.68 //l=0.17 //layer=li \
 //thickness=0.1 //x=7.84 //y=0.17 //x2=7.84 //y2=0
r230 (  59 117 ) resistor r=53.7326 //w=0.187 //l=0.785 //layer=li \
 //thickness=0.1 //x=7.84 //y=0.17 //x2=7.84 //y2=0.955
r231 (  56 99 ) resistor r=5.4201 //w=0.34 //l=0.17 //layer=li //thickness=0.1 \
 //x=6.83 //y=0 //x2=6.66 //y2=0
r232 (  56 58 ) resistor r=7.17087 //w=0.357 //l=0.2 //layer=li \
 //thickness=0.1 //x=6.83 //y=0 //x2=7.03 //y2=0
r233 (  55 100 ) resistor r=2.94794 //w=0.34 //l=0.085 //layer=li \
 //thickness=0.1 //x=7.755 //y=0 //x2=7.84 //y2=0
r234 (  55 58 ) resistor r=25.9944 //w=0.357 //l=0.725 //layer=li \
 //thickness=0.1 //x=7.755 //y=0 //x2=7.03 //y2=0
r235 (  50 98 ) resistor r=2.94794 //w=0.34 //l=0.085 //layer=li \
 //thickness=0.1 //x=4.595 //y=0 //x2=4.51 //y2=0
r236 (  50 52 ) resistor r=34.2409 //w=0.357 //l=0.955 //layer=li \
 //thickness=0.1 //x=4.595 //y=0 //x2=5.55 //y2=0
r237 (  49 99 ) resistor r=5.4201 //w=0.34 //l=0.17 //layer=li //thickness=0.1 \
 //x=6.49 //y=0 //x2=6.66 //y2=0
r238 (  49 52 ) resistor r=33.7031 //w=0.357 //l=0.94 //layer=li \
 //thickness=0.1 //x=6.49 //y=0 //x2=5.55 //y2=0
r239 (  45 98 ) resistor r=4.11603 //w=0.68 //l=0.17 //layer=li \
 //thickness=0.1 //x=4.51 //y=0.17 //x2=4.51 //y2=0
r240 (  45 116 ) resistor r=53.7326 //w=0.187 //l=0.785 //layer=li \
 //thickness=0.1 //x=4.51 //y=0.17 //x2=4.51 //y2=0.955
r241 (  44 96 ) resistor r=5.4201 //w=0.34 //l=0.17 //layer=li //thickness=0.1 \
 //x=3.5 //y=0 //x2=3.33 //y2=0
r242 (  43 98 ) resistor r=2.94794 //w=0.34 //l=0.085 //layer=li \
 //thickness=0.1 //x=4.425 //y=0 //x2=4.51 //y2=0
r243 (  43 44 ) resistor r=33.1653 //w=0.357 //l=0.925 //layer=li \
 //thickness=0.1 //x=4.425 //y=0 //x2=3.5 //y2=0
r244 (  38 40 ) resistor r=39.7983 //w=0.357 //l=1.11 //layer=li \
 //thickness=0.1 //x=1.85 //y=0 //x2=2.96 //y2=0
r245 (  36 95 ) resistor r=2.94794 //w=0.34 //l=0.085 //layer=li \
 //thickness=0.1 //x=1.265 //y=0 //x2=1.18 //y2=0
r246 (  36 38 ) resistor r=20.9748 //w=0.357 //l=0.585 //layer=li \
 //thickness=0.1 //x=1.265 //y=0 //x2=1.85 //y2=0
r247 (  35 96 ) resistor r=5.4201 //w=0.34 //l=0.17 //layer=li //thickness=0.1 \
 //x=3.16 //y=0 //x2=3.33 //y2=0
r248 (  35 40 ) resistor r=7.17087 //w=0.357 //l=0.2 //layer=li \
 //thickness=0.1 //x=3.16 //y=0 //x2=2.96 //y2=0
r249 (  31 95 ) resistor r=4.11603 //w=0.68 //l=0.17 //layer=li \
 //thickness=0.1 //x=1.18 //y=0.17 //x2=1.18 //y2=0
r250 (  31 115 ) resistor r=53.7326 //w=0.187 //l=0.785 //layer=li \
 //thickness=0.1 //x=1.18 //y=0.17 //x2=1.18 //y2=0.955
r251 (  27 95 ) resistor r=2.94794 //w=0.34 //l=0.085 //layer=li \
 //thickness=0.1 //x=1.095 //y=0 //x2=1.18 //y2=0
r252 (  27 30 ) resistor r=12.7283 //w=0.357 //l=0.355 //layer=li \
 //thickness=0.1 //x=1.095 //y=0 //x2=0.74 //y2=0
r253 (  23 107 ) resistor r=4.65 //w=0.17 //l=0.34 //layer=mcon //count=2 \
 //x=11.47 //y=0 //x2=11.47 //y2=0
r254 (  21 104 ) resistor r=3.1 //w=0.17 //l=0.51 //layer=mcon //count=3 \
 //x=10.73 //y=0 //x2=10.73 //y2=0
r255 (  21 23 ) resistor r=0.307309 //w=0.301 //l=0.74 //layer=m1 \
 //thickness=0.36 //x=10.73 //y=0 //x2=11.47 //y2=0
r256 (  19 68 ) resistor r=3.1 //w=0.17 //l=0.51 //layer=mcon //count=3 \
 //x=9.25 //y=0 //x2=9.25 //y2=0
r257 (  19 21 ) resistor r=0.614618 //w=0.301 //l=1.48 //layer=m1 \
 //thickness=0.36 //x=9.25 //y=0 //x2=10.73 //y2=0
r258 (  17 66 ) resistor r=3.1 //w=0.17 //l=0.51 //layer=mcon //count=3 \
 //x=8.14 //y=0 //x2=8.14 //y2=0
r259 (  17 19 ) resistor r=0.460963 //w=0.301 //l=1.11 //layer=m1 \
 //thickness=0.36 //x=8.14 //y=0 //x2=9.25 //y2=0
r260 (  15 58 ) resistor r=3.1 //w=0.17 //l=0.51 //layer=mcon //count=3 \
 //x=7.03 //y=0 //x2=7.03 //y2=0
r261 (  15 17 ) resistor r=0.460963 //w=0.301 //l=1.11 //layer=m1 \
 //thickness=0.36 //x=7.03 //y=0 //x2=8.14 //y2=0
r262 (  12 52 ) resistor r=3.1 //w=0.17 //l=0.51 //layer=mcon //count=3 \
 //x=5.55 //y=0 //x2=5.55 //y2=0
r263 (  10 98 ) resistor r=3.1 //w=0.17 //l=0.51 //layer=mcon //count=3 \
 //x=4.44 //y=0 //x2=4.44 //y2=0
r264 (  10 12 ) resistor r=0.460963 //w=0.301 //l=1.11 //layer=m1 \
 //thickness=0.36 //x=4.44 //y=0 //x2=5.55 //y2=0
r265 (  8 40 ) resistor r=3.1 //w=0.17 //l=0.51 //layer=mcon //count=3 \
 //x=2.96 //y=0 //x2=2.96 //y2=0
r266 (  8 10 ) resistor r=0.614618 //w=0.301 //l=1.48 //layer=m1 \
 //thickness=0.36 //x=2.96 //y=0 //x2=4.44 //y2=0
r267 (  6 38 ) resistor r=3.1 //w=0.17 //l=0.51 //layer=mcon //count=3 \
 //x=1.85 //y=0 //x2=1.85 //y2=0
r268 (  6 8 ) resistor r=0.460963 //w=0.301 //l=1.11 //layer=m1 \
 //thickness=0.36 //x=1.85 //y=0 //x2=2.96 //y2=0
r269 (  3 30 ) resistor r=3.1 //w=0.17 //l=0.51 //layer=mcon //count=3 \
 //x=0.74 //y=0 //x2=0.74 //y2=0
r270 (  3 6 ) resistor r=0.460963 //w=0.301 //l=1.11 //layer=m1 \
 //thickness=0.36 //x=0.74 //y=0 //x2=1.85 //y2=0
r271 (  1 15 ) resistor r=0.384136 //w=0.301 //l=0.925 //layer=m1 \
 //thickness=0.36 //x=6.105 //y=0 //x2=7.03 //y2=0
r272 (  1 12 ) resistor r=0.230482 //w=0.301 //l=0.555 //layer=m1 \
 //thickness=0.36 //x=6.105 //y=0 //x2=5.55 //y2=0
ends PM_VOTER3X1\%GND

subckt PM_VOTER3X1\%VDD ( 1 23 35 43 59 67 85 98 101 102 103 107 108 109 110 \
 111 112 )
c136 ( 112 0 ) capacitor c=0.0451925f //x=11.4 //y=5.02
c137 ( 111 0 ) capacitor c=0.0420333f //x=10.53 //y=5.02
c138 ( 110 0 ) capacitor c=0.0476806f //x=2.405 //y=5.025
c139 ( 109 0 ) capacitor c=0.0241714f //x=1.525 //y=5.025
c140 ( 108 0 ) capacitor c=0.0467094f //x=0.655 //y=5.025
c141 ( 107 0 ) capacitor c=0.234643f //x=11.47 //y=7.4
c142 ( 105 0 ) capacitor c=0.00591168f //x=10.73 //y=7.4
c143 ( 103 0 ) capacitor c=0.107748f //x=9.99 //y=7.4
c144 ( 102 0 ) capacitor c=0.11314f //x=6.66 //y=7.4
c145 ( 101 0 ) capacitor c=0.121063f //x=3.33 //y=7.4
c146 ( 100 0 ) capacitor c=0.00591168f //x=2.55 //y=7.4
c147 ( 99 0 ) capacitor c=0.00591168f //x=1.67 //y=7.4
c148 ( 98 0 ) capacitor c=0.245236f //x=0.74 //y=7.4
c149 ( 85 0 ) capacitor c=0.028745f //x=11.46 //y=7.4
c150 ( 77 0 ) capacitor c=0.0216067f //x=10.58 //y=7.4
c151 ( 67 0 ) capacitor c=0.127118f //x=9.82 //y=7.4
c152 ( 59 0 ) capacitor c=0.1275f //x=6.49 //y=7.4
c153 ( 53 0 ) capacitor c=0.0275781f //x=3.16 //y=7.4
c154 ( 43 0 ) capacitor c=0.0292737f //x=2.465 //y=7.4
c155 ( 35 0 ) capacitor c=0.0290962f //x=1.585 //y=7.4
c156 ( 23 0 ) capacitor c=0.462469f //x=11.47 //y=7.4
r157 (  87 107 ) resistor r=4.11603 //w=0.68 //l=0.17 //layer=li \
 //thickness=0.1 //x=11.545 //y=7.23 //x2=11.545 //y2=7.4
r158 (  87 112 ) resistor r=56.4706 //w=0.187 //l=0.825 //layer=li \
 //thickness=0.1 //x=11.545 //y=7.23 //x2=11.545 //y2=6.405
r159 (  86 105 ) resistor r=2.94794 //w=0.34 //l=0.085 //layer=li \
 //thickness=0.1 //x=10.75 //y=7.4 //x2=10.665 //y2=7.4
r160 (  85 107 ) resistor r=2.94794 //w=0.34 //l=0.085 //layer=li \
 //thickness=0.1 //x=11.46 //y=7.4 //x2=11.545 //y2=7.4
r161 (  85 86 ) resistor r=25.4566 //w=0.357 //l=0.71 //layer=li \
 //thickness=0.1 //x=11.46 //y=7.4 //x2=10.75 //y2=7.4
r162 (  79 105 ) resistor r=4.11603 //w=0.68 //l=0.17 //layer=li \
 //thickness=0.1 //x=10.665 //y=7.23 //x2=10.665 //y2=7.4
r163 (  79 111 ) resistor r=56.4706 //w=0.187 //l=0.825 //layer=li \
 //thickness=0.1 //x=10.665 //y=7.23 //x2=10.665 //y2=6.405
r164 (  78 103 ) resistor r=5.4201 //w=0.34 //l=0.17 //layer=li \
 //thickness=0.1 //x=10.16 //y=7.4 //x2=9.99 //y2=7.4
r165 (  77 105 ) resistor r=2.94794 //w=0.34 //l=0.085 //layer=li \
 //thickness=0.1 //x=10.58 //y=7.4 //x2=10.665 //y2=7.4
r166 (  77 78 ) resistor r=15.0588 //w=0.357 //l=0.42 //layer=li \
 //thickness=0.1 //x=10.58 //y=7.4 //x2=10.16 //y2=7.4
r167 (  72 74 ) resistor r=39.7983 //w=0.357 //l=1.11 //layer=li \
 //thickness=0.1 //x=8.14 //y=7.4 //x2=9.25 //y2=7.4
r168 (  70 72 ) resistor r=39.7983 //w=0.357 //l=1.11 //layer=li \
 //thickness=0.1 //x=7.03 //y=7.4 //x2=8.14 //y2=7.4
r169 (  68 102 ) resistor r=5.4201 //w=0.34 //l=0.17 //layer=li \
 //thickness=0.1 //x=6.83 //y=7.4 //x2=6.66 //y2=7.4
r170 (  68 70 ) resistor r=7.17087 //w=0.357 //l=0.2 //layer=li \
 //thickness=0.1 //x=6.83 //y=7.4 //x2=7.03 //y2=7.4
r171 (  67 103 ) resistor r=5.4201 //w=0.34 //l=0.17 //layer=li \
 //thickness=0.1 //x=9.82 //y=7.4 //x2=9.99 //y2=7.4
r172 (  67 74 ) resistor r=20.437 //w=0.357 //l=0.57 //layer=li \
 //thickness=0.1 //x=9.82 //y=7.4 //x2=9.25 //y2=7.4
r173 (  62 64 ) resistor r=39.7983 //w=0.357 //l=1.11 //layer=li \
 //thickness=0.1 //x=4.44 //y=7.4 //x2=5.55 //y2=7.4
r174 (  60 101 ) resistor r=5.4201 //w=0.34 //l=0.17 //layer=li \
 //thickness=0.1 //x=3.5 //y=7.4 //x2=3.33 //y2=7.4
r175 (  60 62 ) resistor r=33.7031 //w=0.357 //l=0.94 //layer=li \
 //thickness=0.1 //x=3.5 //y=7.4 //x2=4.44 //y2=7.4
r176 (  59 102 ) resistor r=5.4201 //w=0.34 //l=0.17 //layer=li \
 //thickness=0.1 //x=6.49 //y=7.4 //x2=6.66 //y2=7.4
r177 (  59 64 ) resistor r=33.7031 //w=0.357 //l=0.94 //layer=li \
 //thickness=0.1 //x=6.49 //y=7.4 //x2=5.55 //y2=7.4
r178 (  54 100 ) resistor r=2.94794 //w=0.34 //l=0.085 //layer=li \
 //thickness=0.1 //x=2.635 //y=7.4 //x2=2.55 //y2=7.4
r179 (  54 56 ) resistor r=11.6527 //w=0.357 //l=0.325 //layer=li \
 //thickness=0.1 //x=2.635 //y=7.4 //x2=2.96 //y2=7.4
r180 (  53 101 ) resistor r=5.4201 //w=0.34 //l=0.17 //layer=li \
 //thickness=0.1 //x=3.16 //y=7.4 //x2=3.33 //y2=7.4
r181 (  53 56 ) resistor r=7.17087 //w=0.357 //l=0.2 //layer=li \
 //thickness=0.1 //x=3.16 //y=7.4 //x2=2.96 //y2=7.4
r182 (  47 100 ) resistor r=4.11603 //w=0.68 //l=0.17 //layer=li \
 //thickness=0.1 //x=2.55 //y=7.23 //x2=2.55 //y2=7.4
r183 (  47 110 ) resistor r=56.8128 //w=0.187 //l=0.83 //layer=li \
 //thickness=0.1 //x=2.55 //y=7.23 //x2=2.55 //y2=6.4
r184 (  44 99 ) resistor r=2.94794 //w=0.34 //l=0.085 //layer=li \
 //thickness=0.1 //x=1.755 //y=7.4 //x2=1.67 //y2=7.4
r185 (  44 46 ) resistor r=3.40616 //w=0.357 //l=0.095 //layer=li \
 //thickness=0.1 //x=1.755 //y=7.4 //x2=1.85 //y2=7.4
r186 (  43 100 ) resistor r=2.94794 //w=0.34 //l=0.085 //layer=li \
 //thickness=0.1 //x=2.465 //y=7.4 //x2=2.55 //y2=7.4
r187 (  43 46 ) resistor r=22.0504 //w=0.357 //l=0.615 //layer=li \
 //thickness=0.1 //x=2.465 //y=7.4 //x2=1.85 //y2=7.4
r188 (  37 99 ) resistor r=4.11603 //w=0.68 //l=0.17 //layer=li \
 //thickness=0.1 //x=1.67 //y=7.23 //x2=1.67 //y2=7.4
r189 (  37 109 ) resistor r=33.5401 //w=0.187 //l=0.49 //layer=li \
 //thickness=0.1 //x=1.67 //y=7.23 //x2=1.67 //y2=6.74
r190 (  36 98 ) resistor r=2.94794 //w=0.34 //l=0.085 //layer=li \
 //thickness=0.1 //x=0.875 //y=7.4 //x2=0.79 //y2=7.4
r191 (  35 99 ) resistor r=2.94794 //w=0.34 //l=0.085 //layer=li \
 //thickness=0.1 //x=1.585 //y=7.4 //x2=1.67 //y2=7.4
r192 (  35 36 ) resistor r=25.4566 //w=0.357 //l=0.71 //layer=li \
 //thickness=0.1 //x=1.585 //y=7.4 //x2=0.875 //y2=7.4
r193 (  29 98 ) resistor r=4.11603 //w=0.68 //l=0.17 //layer=li \
 //thickness=0.1 //x=0.79 //y=7.23 //x2=0.79 //y2=7.4
r194 (  29 108 ) resistor r=56.8128 //w=0.187 //l=0.83 //layer=li \
 //thickness=0.1 //x=0.79 //y=7.23 //x2=0.79 //y2=6.4
r195 (  23 107 ) resistor r=4.65 //w=0.17 //l=0.34 //layer=mcon //count=2 \
 //x=11.47 //y=7.4 //x2=11.47 //y2=7.4
r196 (  21 105 ) resistor r=3.1 //w=0.17 //l=0.51 //layer=mcon //count=3 \
 //x=10.73 //y=7.4 //x2=10.73 //y2=7.4
r197 (  21 23 ) resistor r=0.307309 //w=0.301 //l=0.74 //layer=m1 \
 //thickness=0.36 //x=10.73 //y=7.4 //x2=11.47 //y2=7.4
r198 (  19 74 ) resistor r=3.1 //w=0.17 //l=0.51 //layer=mcon //count=3 \
 //x=9.25 //y=7.4 //x2=9.25 //y2=7.4
r199 (  19 21 ) resistor r=0.614618 //w=0.301 //l=1.48 //layer=m1 \
 //thickness=0.36 //x=9.25 //y=7.4 //x2=10.73 //y2=7.4
r200 (  17 72 ) resistor r=3.1 //w=0.17 //l=0.51 //layer=mcon //count=3 \
 //x=8.14 //y=7.4 //x2=8.14 //y2=7.4
r201 (  17 19 ) resistor r=0.460963 //w=0.301 //l=1.11 //layer=m1 \
 //thickness=0.36 //x=8.14 //y=7.4 //x2=9.25 //y2=7.4
r202 (  15 70 ) resistor r=3.1 //w=0.17 //l=0.51 //layer=mcon //count=3 \
 //x=7.03 //y=7.4 //x2=7.03 //y2=7.4
r203 (  15 17 ) resistor r=0.460963 //w=0.301 //l=1.11 //layer=m1 \
 //thickness=0.36 //x=7.03 //y=7.4 //x2=8.14 //y2=7.4
r204 (  12 64 ) resistor r=3.1 //w=0.17 //l=0.51 //layer=mcon //count=3 \
 //x=5.55 //y=7.4 //x2=5.55 //y2=7.4
r205 (  10 62 ) resistor r=3.1 //w=0.17 //l=0.51 //layer=mcon //count=3 \
 //x=4.44 //y=7.4 //x2=4.44 //y2=7.4
r206 (  10 12 ) resistor r=0.460963 //w=0.301 //l=1.11 //layer=m1 \
 //thickness=0.36 //x=4.44 //y=7.4 //x2=5.55 //y2=7.4
r207 (  8 56 ) resistor r=3.1 //w=0.17 //l=0.51 //layer=mcon //count=3 \
 //x=2.96 //y=7.4 //x2=2.96 //y2=7.4
r208 (  8 10 ) resistor r=0.614618 //w=0.301 //l=1.48 //layer=m1 \
 //thickness=0.36 //x=2.96 //y=7.4 //x2=4.44 //y2=7.4
r209 (  6 46 ) resistor r=3.1 //w=0.17 //l=0.51 //layer=mcon //count=3 \
 //x=1.85 //y=7.4 //x2=1.85 //y2=7.4
r210 (  6 8 ) resistor r=0.460963 //w=0.301 //l=1.11 //layer=m1 \
 //thickness=0.36 //x=1.85 //y=7.4 //x2=2.96 //y2=7.4
r211 (  3 98 ) resistor r=3.1 //w=0.17 //l=0.51 //layer=mcon //count=3 \
 //x=0.74 //y=7.4 //x2=0.74 //y2=7.4
r212 (  3 6 ) resistor r=0.460963 //w=0.301 //l=1.11 //layer=m1 \
 //thickness=0.36 //x=0.74 //y=7.4 //x2=1.85 //y2=7.4
r213 (  1 15 ) resistor r=0.384136 //w=0.301 //l=0.925 //layer=m1 \
 //thickness=0.36 //x=6.105 //y=7.4 //x2=7.03 //y2=7.4
r214 (  1 12 ) resistor r=0.230482 //w=0.301 //l=0.555 //layer=m1 \
 //thickness=0.36 //x=6.105 //y=7.4 //x2=5.55 //y2=7.4
ends PM_VOTER3X1\%VDD

subckt PM_VOTER3X1\%noxref_3 ( 1 2 13 14 15 23 29 30 37 49 50 51 52 53 54 )
c91 ( 54 0 ) capacitor c=0.034295f //x=5.725 //y=5.025
c92 ( 53 0 ) capacitor c=0.0174957f //x=4.845 //y=5.025
c93 ( 51 0 ) capacitor c=0.0214849f //x=1.965 //y=5.025
c94 ( 50 0 ) capacitor c=0.0218033f //x=1.085 //y=5.025
c95 ( 49 0 ) capacitor c=0.00115294f //x=4.99 //y=6.91
c96 ( 37 0 ) capacitor c=0.0131338f //x=5.785 //y=6.91
c97 ( 30 0 ) capacitor c=0.00386507f //x=4.195 //y=6.91
c98 ( 29 0 ) capacitor c=0.0100992f //x=4.905 //y=6.91
c99 ( 23 0 ) capacitor c=0.0453878f //x=4.11 //y=5.21
c100 ( 15 0 ) capacitor c=0.00855201f //x=2.11 //y=5.295
c101 ( 14 0 ) capacitor c=0.00290434f //x=1.315 //y=5.21
c102 ( 13 0 ) capacitor c=0.0150963f //x=2.025 //y=5.21
c103 ( 2 0 ) capacitor c=0.0111402f //x=2.225 //y=5.21
c104 ( 1 0 ) capacitor c=0.0706872f //x=3.995 //y=5.21
r105 (  39 54 ) resistor r=5.81818 //w=0.187 //l=0.085 //layer=li \
 //thickness=0.1 //x=5.87 //y=6.825 //x2=5.87 //y2=6.74
r106 (  38 49 ) resistor r=5.4201 //w=0.17 //l=0.085 //layer=li \
 //thickness=0.1 //x=5.075 //y=6.91 //x2=4.99 //y2=6.91
r107 (  37 39 ) resistor r=7.15173 //w=0.17 //l=0.120208 //layer=li \
 //thickness=0.1 //x=5.785 //y=6.91 //x2=5.87 //y2=6.825
r108 (  37 38 ) resistor r=48.5989 //w=0.187 //l=0.71 //layer=li \
 //thickness=0.1 //x=5.785 //y=6.91 //x2=5.075 //y2=6.91
r109 (  31 49 ) resistor r=1.40859 //w=0.34 //l=0.085 //layer=li \
 //thickness=0.1 //x=4.99 //y=6.825 //x2=4.99 //y2=6.91
r110 (  31 53 ) resistor r=5.81818 //w=0.187 //l=0.085 //layer=li \
 //thickness=0.1 //x=4.99 //y=6.825 //x2=4.99 //y2=6.74
r111 (  29 49 ) resistor r=5.4201 //w=0.17 //l=0.085 //layer=li \
 //thickness=0.1 //x=4.905 //y=6.91 //x2=4.99 //y2=6.91
r112 (  29 30 ) resistor r=48.5989 //w=0.187 //l=0.71 //layer=li \
 //thickness=0.1 //x=4.905 //y=6.91 //x2=4.195 //y2=6.91
r113 (  23 52 ) resistor r=58.1818 //w=0.187 //l=0.85 //layer=li \
 //thickness=0.1 //x=4.11 //y=5.21 //x2=4.11 //y2=6.06
r114 (  21 30 ) resistor r=7.15173 //w=0.17 //l=0.120208 //layer=li \
 //thickness=0.1 //x=4.11 //y=6.825 //x2=4.195 //y2=6.91
r115 (  21 52 ) resistor r=5.81818 //w=0.187 //l=0.085 //layer=li \
 //thickness=0.1 //x=4.11 //y=6.825 //x2=4.11 //y2=6.74
r116 (  15 48 ) resistor r=3.57586 //w=0.17 //l=0.125 //layer=li \
 //thickness=0.1 //x=2.11 //y=5.295 //x2=2.11 //y2=5.17
r117 (  15 51 ) resistor r=52.3636 //w=0.187 //l=0.765 //layer=li \
 //thickness=0.1 //x=2.11 //y=5.295 //x2=2.11 //y2=6.06
r118 (  13 48 ) resistor r=3.57586 //w=0.17 //l=0.103078 //layer=li \
 //thickness=0.1 //x=2.025 //y=5.21 //x2=2.11 //y2=5.17
r119 (  13 14 ) resistor r=48.5989 //w=0.187 //l=0.71 //layer=li \
 //thickness=0.1 //x=2.025 //y=5.21 //x2=1.315 //y2=5.21
r120 (  7 14 ) resistor r=7.15173 //w=0.17 //l=0.120208 //layer=li \
 //thickness=0.1 //x=1.23 //y=5.295 //x2=1.315 //y2=5.21
r121 (  7 50 ) resistor r=29.0909 //w=0.187 //l=0.425 //layer=li \
 //thickness=0.1 //x=1.23 //y=5.295 //x2=1.23 //y2=5.72
r122 (  6 23 ) resistor r=9.3 //w=0.17 //l=0.17 //layer=mcon //count=1 \
 //x=4.11 //y=5.21 //x2=4.11 //y2=5.21
r123 (  4 48 ) resistor r=9.3 //w=0.17 //l=0.17 //layer=mcon //count=1 \
 //x=2.11 //y=5.21 //x2=2.11 //y2=5.21
r124 (  2 4 ) resistor r=0.0717383 //w=0.224 //l=0.115 //layer=m1 \
 //thickness=0.36 //x=2.225 //y=5.21 //x2=2.11 //y2=5.21
r125 (  1 6 ) resistor r=0.0717383 //w=0.224 //l=0.115 //layer=m1 \
 //thickness=0.36 //x=3.995 //y=5.21 //x2=4.11 //y2=5.21
r126 (  1 2 ) resistor r=1.68893 //w=0.131 //l=1.77 //layer=m1 \
 //thickness=0.36 //x=3.995 //y=5.21 //x2=2.225 //y2=5.21
ends PM_VOTER3X1\%noxref_3

subckt PM_VOTER3X1\%B ( 1 2 7 8 9 10 11 12 13 14 15 16 17 19 32 43 44 45 46 47 \
 48 49 50 51 52 56 58 61 62 63 64 68 69 70 71 75 77 83 84 86 99 )
c153 ( 99 0 ) capacitor c=0.0655948f //x=4.44 //y=4.705
c154 ( 86 0 ) capacitor c=0.0582862f //x=0.74 //y=2.08
c155 ( 84 0 ) capacitor c=0.0342409f //x=4.775 //y=1.21
c156 ( 83 0 ) capacitor c=0.0187384f //x=4.775 //y=0.865
c157 ( 77 0 ) capacitor c=0.0141797f //x=4.62 //y=1.365
c158 ( 75 0 ) capacitor c=0.0149844f //x=4.62 //y=0.71
c159 ( 71 0 ) capacitor c=0.10193f //x=4.245 //y=1.915
c160 ( 70 0 ) capacitor c=0.0225105f //x=4.245 //y=1.52
c161 ( 69 0 ) capacitor c=0.0234376f //x=4.245 //y=1.21
c162 ( 68 0 ) capacitor c=0.0199343f //x=4.245 //y=0.865
c163 ( 64 0 ) capacitor c=0.0318948f //x=1.445 //y=1.21
c164 ( 63 0 ) capacitor c=0.0187384f //x=1.445 //y=0.865
c165 ( 62 0 ) capacitor c=0.0607141f //x=1.085 //y=4.795
c166 ( 61 0 ) capacitor c=0.0292043f //x=1.375 //y=4.795
c167 ( 58 0 ) capacitor c=0.0157913f //x=1.29 //y=1.365
c168 ( 56 0 ) capacitor c=0.0149844f //x=1.29 //y=0.71
c169 ( 52 0 ) capacitor c=0.0302441f //x=0.915 //y=1.915
c170 ( 51 0 ) capacitor c=0.0238107f //x=0.915 //y=1.52
c171 ( 50 0 ) capacitor c=0.0234352f //x=0.915 //y=1.21
c172 ( 49 0 ) capacitor c=0.0199931f //x=0.915 //y=0.865
c173 ( 48 0 ) capacitor c=0.110336f //x=4.77 //y=6.025
c174 ( 47 0 ) capacitor c=0.154049f //x=4.33 //y=6.025
c175 ( 46 0 ) capacitor c=0.110003f //x=1.45 //y=6.025
c176 ( 45 0 ) capacitor c=0.15424f //x=1.01 //y=6.025
c177 ( 32 0 ) capacitor c=0.122411f //x=4.44 //y=2.08
c178 ( 19 0 ) capacitor c=0.12196f //x=0.74 //y=2.08
c179 ( 2 0 ) capacitor c=0.0208472f //x=0.855 //y=4.44
c180 ( 1 0 ) capacitor c=0.119494f //x=4.325 //y=4.44
r181 (  97 99 ) resistor r=22.7554 //w=0.233 //l=0.11 //layer=ply \
 //thickness=0.18 //x=4.33 //y=4.705 //x2=4.44 //y2=4.705
r182 (  84 101 ) resistor r=45.1352 //w=0.168 //l=0.173853 //layer=ply \
 //thickness=0.18 //x=4.775 //y=1.21 //x2=4.735 //y2=1.365
r183 (  83 100 ) resistor r=45.1352 //w=0.168 //l=0.173853 //layer=ply \
 //thickness=0.18 //x=4.775 //y=0.865 //x2=4.735 //y2=0.71
r184 (  83 84 ) resistor r=176.904 //w=0.094 //l=0.345 //layer=ply \
 //thickness=0.18 //x=4.775 //y=0.865 //x2=4.775 //y2=1.21
r185 (  80 99 ) resistor r=68.2661 //w=0.233 //l=0.404166 //layer=ply \
 //thickness=0.18 //x=4.77 //y=4.87 //x2=4.44 //y2=4.705
r186 (  78 96 ) resistor r=10.701 //w=0.21 //l=0.115 //layer=ply \
 //thickness=0.18 //x=4.4 //y=1.365 //x2=4.285 //y2=1.365
r187 (  77 101 ) resistor r=5.52526 //w=0.168 //l=0.115 //layer=ply \
 //thickness=0.18 //x=4.62 //y=1.365 //x2=4.735 //y2=1.365
r188 (  76 95 ) resistor r=5.52526 //w=0.168 //l=0.115 //layer=ply \
 //thickness=0.18 //x=4.4 //y=0.71 //x2=4.285 //y2=0.71
r189 (  75 100 ) resistor r=5.52526 //w=0.168 //l=0.115 //layer=ply \
 //thickness=0.18 //x=4.62 //y=0.71 //x2=4.735 //y2=0.71
r190 (  75 76 ) resistor r=112.809 //w=0.094 //l=0.22 //layer=ply \
 //thickness=0.18 //x=4.62 //y=0.71 //x2=4.4 //y2=0.71
r191 (  72 97 ) resistor r=13.0941 //w=0.233 //l=0.165 //layer=ply \
 //thickness=0.18 //x=4.33 //y=4.87 //x2=4.33 //y2=4.705
r192 (  71 94 ) resistor r=34.8111 //w=0.27 //l=0.264953 //layer=ply \
 //thickness=0.18 //x=4.245 //y=1.915 //x2=4.44 //y2=2.08
r193 (  70 96 ) resistor r=39.5823 //w=0.21 //l=0.173853 //layer=ply \
 //thickness=0.18 //x=4.245 //y=1.52 //x2=4.285 //y2=1.365
r194 (  70 71 ) resistor r=202.543 //w=0.094 //l=0.395 //layer=ply \
 //thickness=0.18 //x=4.245 //y=1.52 //x2=4.245 //y2=1.915
r195 (  69 96 ) resistor r=39.5823 //w=0.21 //l=0.173853 //layer=ply \
 //thickness=0.18 //x=4.245 //y=1.21 //x2=4.285 //y2=1.365
r196 (  68 95 ) resistor r=45.1352 //w=0.168 //l=0.173853 //layer=ply \
 //thickness=0.18 //x=4.245 //y=0.865 //x2=4.285 //y2=0.71
r197 (  68 69 ) resistor r=176.904 //w=0.094 //l=0.345 //layer=ply \
 //thickness=0.18 //x=4.245 //y=0.865 //x2=4.245 //y2=1.21
r198 (  64 92 ) resistor r=45.1352 //w=0.168 //l=0.173853 //layer=ply \
 //thickness=0.18 //x=1.445 //y=1.21 //x2=1.405 //y2=1.365
r199 (  63 91 ) resistor r=45.1352 //w=0.168 //l=0.173853 //layer=ply \
 //thickness=0.18 //x=1.445 //y=0.865 //x2=1.405 //y2=0.71
r200 (  63 64 ) resistor r=176.904 //w=0.094 //l=0.345 //layer=ply \
 //thickness=0.18 //x=1.445 //y=0.865 //x2=1.445 //y2=1.21
r201 (  61 65 ) resistor r=26.9307 //w=0.15 //l=0.106066 //layer=ply \
 //thickness=0.18 //x=1.375 //y=4.795 //x2=1.45 //y2=4.87
r202 (  61 62 ) resistor r=148.702 //w=0.094 //l=0.29 //layer=ply \
 //thickness=0.18 //x=1.375 //y=4.795 //x2=1.085 //y2=4.795
r203 (  59 90 ) resistor r=10.701 //w=0.21 //l=0.115 //layer=ply \
 //thickness=0.18 //x=1.07 //y=1.365 //x2=0.955 //y2=1.365
r204 (  58 92 ) resistor r=5.52526 //w=0.168 //l=0.115 //layer=ply \
 //thickness=0.18 //x=1.29 //y=1.365 //x2=1.405 //y2=1.365
r205 (  57 89 ) resistor r=5.52526 //w=0.168 //l=0.115 //layer=ply \
 //thickness=0.18 //x=1.07 //y=0.71 //x2=0.955 //y2=0.71
r206 (  56 91 ) resistor r=5.52526 //w=0.168 //l=0.115 //layer=ply \
 //thickness=0.18 //x=1.29 //y=0.71 //x2=1.405 //y2=0.71
r207 (  56 57 ) resistor r=112.809 //w=0.094 //l=0.22 //layer=ply \
 //thickness=0.18 //x=1.29 //y=0.71 //x2=1.07 //y2=0.71
r208 (  53 62 ) resistor r=22.1787 //w=0.252 //l=0.106066 //layer=ply \
 //thickness=0.18 //x=1.01 //y=4.87 //x2=1.085 //y2=4.795
r209 (  53 88 ) resistor r=51.6429 //w=0.252 //l=0.34271 //layer=ply \
 //thickness=0.18 //x=1.01 //y=4.87 //x2=0.74 //y2=4.705
r210 (  52 86 ) resistor r=30.4513 //w=0.277 //l=0.243926 //layer=ply \
 //thickness=0.18 //x=0.915 //y=1.915 //x2=0.74 //y2=2.08
r211 (  51 90 ) resistor r=39.5823 //w=0.21 //l=0.173853 //layer=ply \
 //thickness=0.18 //x=0.915 //y=1.52 //x2=0.955 //y2=1.365
r212 (  51 52 ) resistor r=202.543 //w=0.094 //l=0.395 //layer=ply \
 //thickness=0.18 //x=0.915 //y=1.52 //x2=0.915 //y2=1.915
r213 (  50 90 ) resistor r=39.5823 //w=0.21 //l=0.173853 //layer=ply \
 //thickness=0.18 //x=0.915 //y=1.21 //x2=0.955 //y2=1.365
r214 (  49 89 ) resistor r=45.1352 //w=0.168 //l=0.173853 //layer=ply \
 //thickness=0.18 //x=0.915 //y=0.865 //x2=0.955 //y2=0.71
r215 (  49 50 ) resistor r=176.904 //w=0.094 //l=0.345 //layer=ply \
 //thickness=0.18 //x=0.915 //y=0.865 //x2=0.915 //y2=1.21
r216 (  48 80 ) resistor r=592.245 //w=0.094 //l=1.155 //layer=ply \
 //thickness=0.18 //x=4.77 //y=6.025 //x2=4.77 //y2=4.87
r217 (  47 72 ) resistor r=592.245 //w=0.094 //l=1.155 //layer=ply \
 //thickness=0.18 //x=4.33 //y=6.025 //x2=4.33 //y2=4.87
r218 (  46 65 ) resistor r=592.245 //w=0.094 //l=1.155 //layer=ply \
 //thickness=0.18 //x=1.45 //y=6.025 //x2=1.45 //y2=4.87
r219 (  45 53 ) resistor r=592.245 //w=0.094 //l=1.155 //layer=ply \
 //thickness=0.18 //x=1.01 //y=6.025 //x2=1.01 //y2=4.87
r220 (  44 77 ) resistor r=56.4043 //w=0.094 //l=0.11 //layer=ply \
 //thickness=0.18 //x=4.51 //y=1.365 //x2=4.62 //y2=1.365
r221 (  44 78 ) resistor r=56.4043 //w=0.094 //l=0.11 //layer=ply \
 //thickness=0.18 //x=4.51 //y=1.365 //x2=4.4 //y2=1.365
r222 (  43 58 ) resistor r=56.4043 //w=0.094 //l=0.11 //layer=ply \
 //thickness=0.18 //x=1.18 //y=1.365 //x2=1.29 //y2=1.365
r223 (  43 59 ) resistor r=56.4043 //w=0.094 //l=0.11 //layer=ply \
 //thickness=0.18 //x=1.18 //y=1.365 //x2=1.07 //y2=1.365
r224 (  41 99 ) resistor r=152 //w=0.17 //l=0.17 //layer=licon //count=1 \
 //x=4.44 //y=4.705 //x2=4.44 //y2=4.705
r225 (  32 94 ) resistor r=152 //w=0.17 //l=0.17 //layer=licon //count=1 \
 //x=4.44 //y=2.08 //x2=4.44 //y2=2.08
r226 (  29 88 ) resistor r=152 //w=0.17 //l=0.17 //layer=licon //count=1 \
 //x=0.74 //y=4.705 //x2=0.74 //y2=4.705
r227 (  19 86 ) resistor r=152 //w=0.17 //l=0.17 //layer=licon //count=1 \