// File: votern3x1_pcell.spi.pex
// Created: Tue Oct 15 16:01:02 2024
// Program "Calibre xRC"
// Version "v2023.2_27.15"
// Nominal Temperature: 30C
// Circuit Temperature: 30C
// 
simulator lang=spectre
subckt PM_VOTERN3X1_PCELL\%noxref_1 ( 17 21 24 29 37 43 49 62 66 69 71 72 73 )
c138 ( 73 0 ) capacitor c=0.021507f //x=7.65 //y=0.865
c139 ( 72 0 ) capacitor c=0.021507f //x=4.32 //y=0.865
c140 ( 71 0 ) capacitor c=0.0208055f //x=0.99 //y=0.865
c141 ( 70 0 ) capacitor c=0.00440095f //x=7.84 //y=0
c142 ( 69 0 ) capacitor c=0.101477f //x=6.66 //y=0
c143 ( 68 0 ) capacitor c=0.00440095f //x=4.44 //y=0
c144 ( 66 0 ) capacitor c=0.118054f //x=3.33 //y=0
c145 ( 65 0 ) capacitor c=0.00440095f //x=1.18 //y=0
c146 ( 62 0 ) capacitor c=0.259174f //x=9.25 //y=0
c147 ( 49 0 ) capacitor c=0.0389876f //x=7.755 //y=0
c148 ( 43 0 ) capacitor c=0.0716428f //x=6.49 //y=0
c149 ( 37 0 ) capacitor c=0.0388276f //x=4.425 //y=0
c150 ( 29 0 ) capacitor c=0.0717807f //x=3.16 //y=0
c151 ( 24 0 ) capacitor c=0.177035f //x=0.74 //y=0
c152 ( 21 0 ) capacitor c=0.0422406f //x=1.095 //y=0
c153 ( 17 0 ) capacitor c=0.338433f //x=9.25 //y=0
r154 (  60 62 ) resistor r=39.7983 //w=0.357 //l=1.11 //layer=li \
 //thickness=0.1 //x=8.14 //y=0 //x2=9.25 //y2=0
r155 (  58 70 ) resistor r=2.94794 //w=0.34 //l=0.085 //layer=li \
 //thickness=0.1 //x=7.925 //y=0 //x2=7.84 //y2=0
r156 (  58 60 ) resistor r=7.70868 //w=0.357 //l=0.215 //layer=li \
 //thickness=0.1 //x=7.925 //y=0 //x2=8.14 //y2=0
r157 (  53 70 ) resistor r=4.11603 //w=0.68 //l=0.17 //layer=li \
 //thickness=0.1 //x=7.84 //y=0.17 //x2=7.84 //y2=0
r158 (  53 73 ) resistor r=53.7326 //w=0.187 //l=0.785 //layer=li \
 //thickness=0.1 //x=7.84 //y=0.17 //x2=7.84 //y2=0.955
r159 (  50 69 ) resistor r=5.4201 //w=0.34 //l=0.17 //layer=li //thickness=0.1 \
 //x=6.83 //y=0 //x2=6.66 //y2=0
r160 (  50 52 ) resistor r=7.17087 //w=0.357 //l=0.2 //layer=li \
 //thickness=0.1 //x=6.83 //y=0 //x2=7.03 //y2=0
r161 (  49 70 ) resistor r=2.94794 //w=0.34 //l=0.085 //layer=li \
 //thickness=0.1 //x=7.755 //y=0 //x2=7.84 //y2=0
r162 (  49 52 ) resistor r=25.9944 //w=0.357 //l=0.725 //layer=li \
 //thickness=0.1 //x=7.755 //y=0 //x2=7.03 //y2=0
r163 (  44 68 ) resistor r=2.94794 //w=0.34 //l=0.085 //layer=li \
 //thickness=0.1 //x=4.595 //y=0 //x2=4.51 //y2=0
r164 (  44 46 ) resistor r=34.2409 //w=0.357 //l=0.955 //layer=li \
 //thickness=0.1 //x=4.595 //y=0 //x2=5.55 //y2=0
r165 (  43 69 ) resistor r=5.4201 //w=0.34 //l=0.17 //layer=li //thickness=0.1 \
 //x=6.49 //y=0 //x2=6.66 //y2=0
r166 (  43 46 ) resistor r=33.7031 //w=0.357 //l=0.94 //layer=li \
 //thickness=0.1 //x=6.49 //y=0 //x2=5.55 //y2=0
r167 (  39 68 ) resistor r=4.11603 //w=0.68 //l=0.17 //layer=li \
 //thickness=0.1 //x=4.51 //y=0.17 //x2=4.51 //y2=0
r168 (  39 72 ) resistor r=53.7326 //w=0.187 //l=0.785 //layer=li \
 //thickness=0.1 //x=4.51 //y=0.17 //x2=4.51 //y2=0.955
r169 (  38 66 ) resistor r=5.4201 //w=0.34 //l=0.17 //layer=li //thickness=0.1 \
 //x=3.5 //y=0 //x2=3.33 //y2=0
r170 (  37 68 ) resistor r=2.94794 //w=0.34 //l=0.085 //layer=li \
 //thickness=0.1 //x=4.425 //y=0 //x2=4.51 //y2=0
r171 (  37 38 ) resistor r=33.1653 //w=0.357 //l=0.925 //layer=li \
 //thickness=0.1 //x=4.425 //y=0 //x2=3.5 //y2=0
r172 (  32 34 ) resistor r=39.7983 //w=0.357 //l=1.11 //layer=li \
 //thickness=0.1 //x=1.85 //y=0 //x2=2.96 //y2=0
r173 (  30 65 ) resistor r=2.94794 //w=0.34 //l=0.085 //layer=li \
 //thickness=0.1 //x=1.265 //y=0 //x2=1.18 //y2=0
r174 (  30 32 ) resistor r=20.9748 //w=0.357 //l=0.585 //layer=li \
 //thickness=0.1 //x=1.265 //y=0 //x2=1.85 //y2=0
r175 (  29 66 ) resistor r=5.4201 //w=0.34 //l=0.17 //layer=li //thickness=0.1 \
 //x=3.16 //y=0 //x2=3.33 //y2=0
r176 (  29 34 ) resistor r=7.17087 //w=0.357 //l=0.2 //layer=li \
 //thickness=0.1 //x=3.16 //y=0 //x2=2.96 //y2=0
r177 (  25 65 ) resistor r=4.11603 //w=0.68 //l=0.17 //layer=li \
 //thickness=0.1 //x=1.18 //y=0.17 //x2=1.18 //y2=0
r178 (  25 71 ) resistor r=53.7326 //w=0.187 //l=0.785 //layer=li \
 //thickness=0.1 //x=1.18 //y=0.17 //x2=1.18 //y2=0.955
r179 (  21 65 ) resistor r=2.94794 //w=0.34 //l=0.085 //layer=li \
 //thickness=0.1 //x=1.095 //y=0 //x2=1.18 //y2=0
r180 (  21 24 ) resistor r=12.7283 //w=0.357 //l=0.355 //layer=li \
 //thickness=0.1 //x=1.095 //y=0 //x2=0.74 //y2=0
r181 (  17 62 ) resistor r=3.1 //w=0.17 //l=0.51 //layer=mcon //count=3 \
 //x=9.25 //y=0 //x2=9.25 //y2=0
r182 (  15 60 ) resistor r=3.1 //w=0.17 //l=0.51 //layer=mcon //count=3 \
 //x=8.14 //y=0 //x2=8.14 //y2=0
r183 (  15 17 ) resistor r=0.460963 //w=0.301 //l=1.11 //layer=m1 \
 //thickness=0.36 //x=8.14 //y=0 //x2=9.25 //y2=0
r184 (  13 52 ) resistor r=3.1 //w=0.17 //l=0.51 //layer=mcon //count=3 \
 //x=7.03 //y=0 //x2=7.03 //y2=0
r185 (  13 15 ) resistor r=0.460963 //w=0.301 //l=1.11 //layer=m1 \
 //thickness=0.36 //x=7.03 //y=0 //x2=8.14 //y2=0
r186 (  11 46 ) resistor r=3.1 //w=0.17 //l=0.51 //layer=mcon //count=3 \
 //x=5.55 //y=0 //x2=5.55 //y2=0
r187 (  11 13 ) resistor r=0.614618 //w=0.301 //l=1.48 //layer=m1 \
 //thickness=0.36 //x=5.55 //y=0 //x2=7.03 //y2=0
r188 (  9 68 ) resistor r=3.1 //w=0.17 //l=0.51 //layer=mcon //count=3 \
 //x=4.44 //y=0 //x2=4.44 //y2=0
r189 (  9 11 ) resistor r=0.460963 //w=0.301 //l=1.11 //layer=m1 \
 //thickness=0.36 //x=4.44 //y=0 //x2=5.55 //y2=0
r190 (  7 34 ) resistor r=3.1 //w=0.17 //l=0.51 //layer=mcon //count=3 \
 //x=2.96 //y=0 //x2=2.96 //y2=0
r191 (  7 9 ) resistor r=0.614618 //w=0.301 //l=1.48 //layer=m1 \
 //thickness=0.36 //x=2.96 //y=0 //x2=4.44 //y2=0
r192 (  5 32 ) resistor r=3.1 //w=0.17 //l=0.51 //layer=mcon //count=3 \
 //x=1.85 //y=0 //x2=1.85 //y2=0
r193 (  5 7 ) resistor r=0.460963 //w=0.301 //l=1.11 //layer=m1 \
 //thickness=0.36 //x=1.85 //y=0 //x2=2.96 //y2=0
r194 (  2 24 ) resistor r=3.1 //w=0.17 //l=0.51 //layer=mcon //count=3 \
 //x=0.74 //y=0 //x2=0.74 //y2=0
r195 (  2 5 ) resistor r=0.460963 //w=0.301 //l=1.11 //layer=m1 \
 //thickness=0.36 //x=0.74 //y=0 //x2=1.85 //y2=0
ends PM_VOTERN3X1_PCELL\%noxref_1

subckt PM_VOTERN3X1_PCELL\%noxref_2 ( 17 29 37 53 68 72 75 76 77 78 79 )
c106 ( 79 0 ) capacitor c=0.0476806f //x=2.405 //y=5.025
c107 ( 78 0 ) capacitor c=0.0241714f //x=1.525 //y=5.025
c108 ( 77 0 ) capacitor c=0.0467094f //x=0.655 //y=5.025
c109 ( 76 0 ) capacitor c=0.11314f //x=6.66 //y=7.4
c110 ( 75 0 ) capacitor c=0.121063f //x=3.33 //y=7.4
c111 ( 74 0 ) capacitor c=0.00591168f //x=2.55 //y=7.4
c112 ( 73 0 ) capacitor c=0.00591168f //x=1.67 //y=7.4
c113 ( 72 0 ) capacitor c=0.245236f //x=0.74 //y=7.4
c114 ( 68 0 ) capacitor c=0.336964f //x=9.25 //y=7.4
c115 ( 53 0 ) capacitor c=0.1275f //x=6.49 //y=7.4
c116 ( 47 0 ) capacitor c=0.0275781f //x=3.16 //y=7.4
c117 ( 37 0 ) capacitor c=0.0292737f //x=2.465 //y=7.4
c118 ( 29 0 ) capacitor c=0.0290962f //x=1.585 //y=7.4
c119 ( 17 0 ) capacitor c=0.382468f //x=9.25 //y=7.4
r120 (  66 68 ) resistor r=39.7983 //w=0.357 //l=1.11 //layer=li \
 //thickness=0.1 //x=8.14 //y=7.4 //x2=9.25 //y2=7.4
r121 (  64 66 ) resistor r=39.7983 //w=0.357 //l=1.11 //layer=li \
 //thickness=0.1 //x=7.03 //y=7.4 //x2=8.14 //y2=7.4
r122 (  62 76 ) resistor r=5.4201 //w=0.34 //l=0.17 //layer=li //thickness=0.1 \
 //x=6.83 //y=7.4 //x2=6.66 //y2=7.4
r123 (  62 64 ) resistor r=7.17087 //w=0.357 //l=0.2 //layer=li \
 //thickness=0.1 //x=6.83 //y=7.4 //x2=7.03 //y2=7.4
r124 (  56 58 ) resistor r=39.7983 //w=0.357 //l=1.11 //layer=li \
 //thickness=0.1 //x=4.44 //y=7.4 //x2=5.55 //y2=7.4
r125 (  54 75 ) resistor r=5.4201 //w=0.34 //l=0.17 //layer=li //thickness=0.1 \
 //x=3.5 //y=7.4 //x2=3.33 //y2=7.4
r126 (  54 56 ) resistor r=33.7031 //w=0.357 //l=0.94 //layer=li \
 //thickness=0.1 //x=3.5 //y=7.4 //x2=4.44 //y2=7.4
r127 (  53 76 ) resistor r=5.4201 //w=0.34 //l=0.17 //layer=li //thickness=0.1 \
 //x=6.49 //y=7.4 //x2=6.66 //y2=7.4
r128 (  53 58 ) resistor r=33.7031 //w=0.357 //l=0.94 //layer=li \
 //thickness=0.1 //x=6.49 //y=7.4 //x2=5.55 //y2=7.4
r129 (  48 74 ) resistor r=2.94794 //w=0.34 //l=0.085 //layer=li \
 //thickness=0.1 //x=2.635 //y=7.4 //x2=2.55 //y2=7.4
r130 (  48 50 ) resistor r=11.6527 //w=0.357 //l=0.325 //layer=li \
 //thickness=0.1 //x=2.635 //y=7.4 //x2=2.96 //y2=7.4
r131 (  47 75 ) resistor r=5.4201 //w=0.34 //l=0.17 //layer=li //thickness=0.1 \
 //x=3.16 //y=7.4 //x2=3.33 //y2=7.4
r132 (  47 50 ) resistor r=7.17087 //w=0.357 //l=0.2 //layer=li \
 //thickness=0.1 //x=3.16 //y=7.4 //x2=2.96 //y2=7.4
r133 (  41 74 ) resistor r=4.11603 //w=0.68 //l=0.17 //layer=li \
 //thickness=0.1 //x=2.55 //y=7.23 //x2=2.55 //y2=7.4
r134 (  41 79 ) resistor r=56.8128 //w=0.187 //l=0.83 //layer=li \
 //thickness=0.1 //x=2.55 //y=7.23 //x2=2.55 //y2=6.4
r135 (  38 73 ) resistor r=2.94794 //w=0.34 //l=0.085 //layer=li \
 //thickness=0.1 //x=1.755 //y=7.4 //x2=1.67 //y2=7.4
r136 (  38 40 ) resistor r=3.40616 //w=0.357 //l=0.095 //layer=li \
 //thickness=0.1 //x=1.755 //y=7.4 //x2=1.85 //y2=7.4
r137 (  37 74 ) resistor r=2.94794 //w=0.34 //l=0.085 //layer=li \
 //thickness=0.1 //x=2.465 //y=7.4 //x2=2.55 //y2=7.4
r138 (  37 40 ) resistor r=22.0504 //w=0.357 //l=0.615 //layer=li \
 //thickness=0.1 //x=2.465 //y=7.4 //x2=1.85 //y2=7.4
r139 (  31 73 ) resistor r=4.11603 //w=0.68 //l=0.17 //layer=li \
 //thickness=0.1 //x=1.67 //y=7.23 //x2=1.67 //y2=7.4
r140 (  31 78 ) resistor r=33.5401 //w=0.187 //l=0.49 //layer=li \
 //thickness=0.1 //x=1.67 //y=7.23 //x2=1.67 //y2=6.74
r141 (  30 72 ) resistor r=2.94794 //w=0.34 //l=0.085 //layer=li \
 //thickness=0.1 //x=0.875 //y=7.4 //x2=0.79 //y2=7.4
r142 (  29 73 ) resistor r=2.94794 //w=0.34 //l=0.085 //layer=li \
 //thickness=0.1 //x=1.585 //y=7.4 //x2=1.67 //y2=7.4
r143 (  29 30 ) resistor r=25.4566 //w=0.357 //l=0.71 //layer=li \
 //thickness=0.1 //x=1.585 //y=7.4 //x2=0.875 //y2=7.4
r144 (  23 72 ) resistor r=4.11603 //w=0.68 //l=0.17 //layer=li \
 //thickness=0.1 //x=0.79 //y=7.23 //x2=0.79 //y2=7.4
r145 (  23 77 ) resistor r=56.8128 //w=0.187 //l=0.83 //layer=li \
 //thickness=0.1 //x=0.79 //y=7.23 //x2=0.79 //y2=6.4
r146 (  17 68 ) resistor r=3.1 //w=0.17 //l=0.51 //layer=mcon //count=3 \
 //x=9.25 //y=7.4 //x2=9.25 //y2=7.4
r147 (  15 66 ) resistor r=3.1 //w=0.17 //l=0.51 //layer=mcon //count=3 \
 //x=8.14 //y=7.4 //x2=8.14 //y2=7.4
r148 (  15 17 ) resistor r=0.460963 //w=0.301 //l=1.11 //layer=m1 \
 //thickness=0.36 //x=8.14 //y=7.4 //x2=9.25 //y2=7.4
r149 (  13 64 ) resistor r=3.1 //w=0.17 //l=0.51 //layer=mcon //count=3 \
 //x=7.03 //y=7.4 //x2=7.03 //y2=7.4
r150 (  13 15 ) resistor r=0.460963 //w=0.301 //l=1.11 //layer=m1 \
 //thickness=0.36 //x=7.03 //y=7.4 //x2=8.14 //y2=7.4
r151 (  11 58 ) resistor r=3.1 //w=0.17 //l=0.51 //layer=mcon //count=3 \
 //x=5.55 //y=7.4 //x2=5.55 //y2=7.4
r152 (  11 13 ) resistor r=0.614618 //w=0.301 //l=1.48 //layer=m1 \
 //thickness=0.36 //x=5.55 //y=7.4 //x2=7.03 //y2=7.4
r153 (  9 56 ) resistor r=3.1 //w=0.17 //l=0.51 //layer=mcon //count=3 \
 //x=4.44 //y=7.4 //x2=4.44 //y2=7.4
r154 (  9 11 ) resistor r=0.460963 //w=0.301 //l=1.11 //layer=m1 \
 //thickness=0.36 //x=4.44 //y=7.4 //x2=5.55 //y2=7.4
r155 (  7 50 ) resistor r=3.1 //w=0.17 //l=0.51 //layer=mcon //count=3 \
 //x=2.96 //y=7.4 //x2=2.96 //y2=7.4
r156 (  7 9 ) resistor r=0.614618 //w=0.301 //l=1.48 //layer=m1 \
 //thickness=0.36 //x=2.96 //y=7.4 //x2=4.44 //y2=7.4
r157 (  5 40 ) resistor r=3.1 //w=0.17 //l=0.51 //layer=mcon //count=3 \
 //x=1.85 //y=7.4 //x2=1.85 //y2=7.4
r158 (  5 7 ) resistor r=0.460963 //w=0.301 //l=1.11 //layer=m1 \
 //thickness=0.36 //x=1.85 //y=7.4 //x2=2.96 //y2=7.4
r159 (  2 72 ) resistor r=3.1 //w=0.17 //l=0.51 //layer=mcon //count=3 \
 //x=0.74 //y=7.4 //x2=0.74 //y2=7.4
r160 (  2 5 ) resistor r=0.460963 //w=0.301 //l=1.11 //layer=m1 \
 //thickness=0.36 //x=0.74 //y=7.4 //x2=1.85 //y2=7.4
ends PM_VOTERN3X1_PCELL\%noxref_2

subckt PM_VOTERN3X1_PCELL\%noxref_3 ( 1 2 13 14 15 23 29 30 37 49 50 51 52 53 \
 54 )
c91 ( 54 0 ) capacitor c=0.034295f //x=5.725 //y=5.025
c92 ( 53 0 ) capacitor c=0.0174957f //x=4.845 //y=5.025
c93 ( 51 0 ) capacitor c=0.0214849f //x=1.965 //y=5.025
c94 ( 50 0 ) capacitor c=0.0218033f //x=1.085 //y=5.025
c95 ( 49 0 ) capacitor c=0.00115294f //x=4.99 //y=6.91
c96 ( 37 0 ) capacitor c=0.0131338f //x=5.785 //y=6.91
c97 ( 30 0 ) capacitor c=0.00386507f //x=4.195 //y=6.91
c98 ( 29 0 ) capacitor c=0.0100992f //x=4.905 //y=6.91
c99 ( 23 0 ) capacitor c=0.0453878f //x=4.11 //y=5.21
c100 ( 15 0 ) capacitor c=0.00855201f //x=2.11 //y=5.295
c101 ( 14 0 ) capacitor c=0.00290434f //x=1.315 //y=5.21
c102 ( 13 0 ) capacitor c=0.0150963f //x=2.025 //y=5.21
c103 ( 2 0 ) capacitor c=0.0111402f //x=2.225 //y=5.21
c104 ( 1 0 ) capacitor c=0.0706872f //x=3.995 //y=5.21
r105 (  39 54 ) resistor r=5.81818 //w=0.187 //l=0.085 //layer=li \
 //thickness=0.1 //x=5.87 //y=6.825 //x2=5.87 //y2=6.74
r106 (  38 49 ) resistor r=5.4201 //w=0.17 //l=0.085 //layer=li \
 //thickness=0.1 //x=5.075 //y=6.91 //x2=4.99 //y2=6.91
r107 (  37 39 ) resistor r=7.15173 //w=0.17 //l=0.120208 //layer=li \
 //thickness=0.1 //x=5.785 //y=6.91 //x2=5.87 //y2=6.825
r108 (  37 38 ) resistor r=48.5989 //w=0.187 //l=0.71 //layer=li \
 //thickness=0.1 //x=5.785 //y=6.91 //x2=5.075 //y2=6.91
r109 (  31 49 ) resistor r=1.40859 //w=0.34 //l=0.085 //layer=li \
 //thickness=0.1 //x=4.99 //y=6.825 //x2=4.99 //y2=6.91
r110 (  31 53 ) resistor r=5.81818 //w=0.187 //l=0.085 //layer=li \
 //thickness=0.1 //x=4.99 //y=6.825 //x2=4.99 //y2=6.74
r111 (  29 49 ) resistor r=5.4201 //w=0.17 //l=0.085 //layer=li \
 //thickness=0.1 //x=4.905 //y=6.91 //x2=4.99 //y2=6.91
r112 (  29 30 ) resistor r=48.5989 //w=0.187 //l=0.71 //layer=li \
 //thickness=0.1 //x=4.905 //y=6.91 //x2=4.195 //y2=6.91
r113 (  23 52 ) resistor r=58.1818 //w=0.187 //l=0.85 //layer=li \
 //thickness=0.1 //x=4.11 //y=5.21 //x2=4.11 //y2=6.06
r114 (  21 30 ) resistor r=7.15173 //w=0.17 //l=0.120208 //layer=li \
 //thickness=0.1 //x=4.11 //y=6.825 //x2=4.195 //y2=6.91
r115 (  21 52 ) resistor r=5.81818 //w=0.187 //l=0.085 //layer=li \
 //thickness=0.1 //x=4.11 //y=6.825 //x2=4.11 //y2=6.74
r116 (  15 48 ) resistor r=3.57586 //w=0.17 //l=0.125 //layer=li \
 //thickness=0.1 //x=2.11 //y=5.295 //x2=2.11 //y2=5.17
r117 (  15 51 ) resistor r=52.3636 //w=0.187 //l=0.765 //layer=li \
 //thickness=0.1 //x=2.11 //y=5.295 //x2=2.11 //y2=6.06
r118 (  13 48 ) resistor r=3.57586 //w=0.17 //l=0.103078 //layer=li \
 //thickness=0.1 //x=2.025 //y=5.21 //x2=2.11 //y2=5.17
r119 (  13 14 ) resistor r=48.5989 //w=0.187 //l=0.71 //layer=li \
 //thickness=0.1 //x=2.025 //y=5.21 //x2=1.315 //y2=5.21
r120 (  7 14 ) resistor r=7.15173 //w=0.17 //l=0.120208 //layer=li \
 //thickness=0.1 //x=1.23 //y=5.295 //x2=1.315 //y2=5.21
r121 (  7 50 ) resistor r=29.0909 //w=0.187 //l=0.425 //layer=li \
 //thickness=0.1 //x=1.23 //y=5.295 //x2=1.23 //y2=5.72
r122 (  6 23 ) resistor r=9.3 //w=0.17 //l=0.17 //layer=mcon //count=1 \
 //x=4.11 //y=5.21 //x2=4.11 //y2=5.21
r123 (  4 48 ) resistor r=9.3 //w=0.17 //l=0.17 //layer=mcon //count=1 \
 //x=2.11 //y=5.21 //x2=2.11 //y2=5.21
r124 (  2 4 ) resistor r=0.0717383 //w=0.224 //l=0.115 //layer=m1 \
 //thickness=0.36 //x=2.225 //y=5.21 //x2=2.11 //y2=5.21
r125 (  1 6 ) resistor r=0.0717383 //w=0.224 //l=0.115 //layer=m1 \
 //thickness=0.36 //x=3.995 //y=5.21 //x2=4.11 //y2=5.21
r126 (  1 2 ) resistor r=1.68893 //w=0.131 //l=1.77 //layer=m1 \
 //thickness=0.36 //x=3.995 //y=5.21 //x2=2.225 //y2=5.21
ends PM_VOTERN3X1_PCELL\%noxref_3

subckt PM_VOTERN3X1_PCELL\%noxref_4 ( 1 2 8 16 23 24 25 26 27 28 29 30 31 32 \
 36 38 41 42 43 44 48 49 50 51 55 57 63 64 66 79 )
c153 ( 79 0 ) capacitor c=0.0655948f //x=4.44 //y=4.705
c154 ( 66 0 ) capacitor c=0.0582862f //x=0.74 //y=2.08
c155 ( 64 0 ) capacitor c=0.0342409f //x=4.775 //y=1.21
c156 ( 63 0 ) capacitor c=0.0187384f //x=4.775 //y=0.865
c157 ( 57 0 ) capacitor c=0.0141797f //x=4.62 //y=1.365
c158 ( 55 0 ) capacitor c=0.0149844f //x=4.62 //y=0.71
c159 ( 51 0 ) capacitor c=0.10193f //x=4.245 //y=1.915
c160 ( 50 0 ) capacitor c=0.0225105f //x=4.245 //y=1.52
c161 ( 49 0 ) capacitor c=0.0234376f //x=4.245 //y=1.21
c162 ( 48 0 ) capacitor c=0.0199343f //x=4.245 //y=0.865
c163 ( 44 0 ) capacitor c=0.0318948f //x=1.445 //y=1.21
c164 ( 43 0 ) capacitor c=0.0187384f //x=1.445 //y=0.865
c165 ( 42 0 ) capacitor c=0.0607141f //x=1.085 //y=4.795
c166 ( 41 0 ) capacitor c=0.0292043f //x=1.375 //y=4.795
c167 ( 38 0 ) capacitor c=0.0157913f //x=1.29 //y=1.365
c168 ( 36 0 ) capacitor c=0.0149844f //x=1.29 //y=0.71
c169 ( 32 0 ) capacitor c=0.0302441f //x=0.915 //y=1.915
c170 ( 31 0 ) capacitor c=0.0238107f //x=0.915 //y=1.52
c171 ( 30 0 ) capacitor c=0.0234352f //x=0.915 //y=1.21
c172 ( 29 0 ) capacitor c=0.0199931f //x=0.915 //y=0.865
c173 ( 28 0 ) capacitor c=0.110336f //x=4.77 //y=6.025
c174 ( 27 0 ) capacitor c=0.154049f //x=4.33 //y=6.025
c175 ( 26 0 ) capacitor c=0.110003f //x=1.45 //y=6.025
c176 ( 25 0 ) capacitor c=0.15424f //x=1.01 //y=6.025
c177 ( 16 0 ) capacitor c=0.122411f //x=4.44 //y=2.08
c178 ( 8 0 ) capacitor c=0.12196f //x=0.74 //y=2.08
c179 ( 2 0 ) capacitor c=0.0208472f //x=0.855 //y=4.44
c180 ( 1 0 ) capacitor c=0.119494f //x=4.325 //y=4.44
r181 (  77 79 ) resistor r=22.7554 //w=0.233 //l=0.11 //layer=ply \
 //thickness=0.18 //x=4.33 //y=4.705 //x2=4.44 //y2=4.705
r182 (  64 81 ) resistor r=45.1352 //w=0.168 //l=0.173853 //layer=ply \
 //thickness=0.18 //x=4.775 //y=1.21 //x2=4.735 //y2=1.365
r183 (  63 80 ) resistor r=45.1352 //w=0.168 //l=0.173853 //layer=ply \
 //thickness=0.18 //x=4.775 //y=0.865 //x2=4.735 //y2=0.71
r184 (  63 64 ) resistor r=176.904 //w=0.094 //l=0.345 //layer=ply \
 //thickness=0.18 //x=4.775 //y=0.865 //x2=4.775 //y2=1.21
r185 (  60 79 ) resistor r=68.2661 //w=0.233 //l=0.404166 //layer=ply \
 //thickness=0.18 //x=4.77 //y=4.87 //x2=4.44 //y2=4.705
r186 (  58 76 ) resistor r=10.701 //w=0.21 //l=0.115 //layer=ply \
 //thickness=0.18 //x=4.4 //y=1.365 //x2=4.285 //y2=1.365
r187 (  57 81 ) resistor r=5.52526 //w=0.168 //l=0.115 //layer=ply \
 //thickness=0.18 //x=4.62 //y=1.365 //x2=4.735 //y2=1.365
r188 (  56 75 ) resistor r=5.52526 //w=0.168 //l=0.115 //layer=ply \
 //thickness=0.18 //x=4.4 //y=0.71 //x2=4.285 //y2=0.71
r189 (  55 80 ) resistor r=5.52526 //w=0.168 //l=0.115 //layer=ply \
 //thickness=0.18 //x=4.62 //y=0.71 //x2=4.735 //y2=0.71
r190 (  55 56 ) resistor r=112.809 //w=0.094 //l=0.22 //layer=ply \
 //thickness=0.18 //x=4.62 //y=0.71 //x2=4.4 //y2=0.71
r191 (  52 77 ) resistor r=13.0941 //w=0.233 //l=0.165 //layer=ply \
 //thickness=0.18 //x=4.33 //y=4.87 //x2=4.33 //y2=4.705
r192 (  51 74 ) resistor r=34.8111 //w=0.27 //l=0.264953 //layer=ply \
 //thickness=0.18 //x=4.245 //y=1.915 //x2=4.44 //y2=2.08
r193 (  50 76 ) resistor r=39.5823 //w=0.21 //l=0.173853 //layer=ply \
 //thickness=0.18 //x=4.245 //y=1.52 //x2=4.285 //y2=1.365
r194 (  50 51 ) resistor r=202.543 //w=0.094 //l=0.395 //layer=ply \
 //thickness=0.18 //x=4.245 //y=1.52 //x2=4.245 //y2=1.915
r195 (  49 76 ) resistor r=39.5823 //w=0.21 //l=0.173853 //layer=ply \
 //thickness=0.18 //x=4.245 //y=1.21 //x2=4.285 //y2=1.365
r196 (  48 75 ) resistor r=45.1352 //w=0.168 //l=0.173853 //layer=ply \
 //thickness=0.18 //x=4.245 //y=0.865 //x2=4.285 //y2=0.71
r197 (  48 49 ) resistor r=176.904 //w=0.094 //l=0.345 //layer=ply \
 //thickness=0.18 //x=4.245 //y=0.865 //x2=4.245 //y2=1.21
r198 (  44 72 ) resistor r=45.1352 //w=0.168 //l=0.173853 //layer=ply \
 //thickness=0.18 //x=1.445 //y=1.21 //x2=1.405 //y2=1.365
r199 (  43 71 ) resistor r=45.1352 //w=0.168 //l=0.173853 //layer=ply \
 //thickness=0.18 //x=1.445 //y=0.865 //x2=1.405 //y2=0.71
r200 (  43 44 ) resistor r=176.904 //w=0.094 //l=0.345 //layer=ply \
 //thickness=0.18 //x=1.445 //y=0.865 //x2=1.445 //y2=1.21
r201 (  41 45 ) resistor r=26.9307 //w=0.15 //l=0.106066 //layer=ply \
 //thickness=0.18 //x=1.375 //y=4.795 //x2=1.45 //y2=4.87
r202 (  41 42 ) resistor r=148.702 //w=0.094 //l=0.29 //layer=ply \
 //thickness=0.18 //x=1.375 //y=4.795 //x2=1.085 //y2=4.795
r203 (  39 70 ) resistor r=10.701 //w=0.21 //l=0.115 //layer=ply \
 //thickness=0.18 //x=1.07 //y=1.365 //x2=0.955 //y2=1.365
r204 (  38 72 ) resistor r=5.52526 //w=0.168 //l=0.115 //layer=ply \
 //thickness=0.18 //x=1.29 //y=1.365 //x2=1.405 //y2=1.365
r205 (  37 69 ) resistor r=5.52526 //w=0.168 //l=0.115 //layer=ply \
 //thickness=0.18 //x=1.07 //y=0.71 //x2=0.955 //y2=0.71
r206 (  36 71 ) resistor r=5.52526 //w=0.168 //l=0.115 //layer=ply \
 //thickness=0.18 //x=1.29 //y=0.71 //x2=1.405 //y2=0.71
r207 (  36 37 ) resistor r=112.809 //w=0.094 //l=0.22 //layer=ply \
 //thickness=0.18 //x=1.29 //y=0.71 //x2=1.07 //y2=0.71
r208 (  33 42 ) resistor r=22.1787 //w=0.252 //l=0.106066 //layer=ply \
 //thickness=0.18 //x=1.01 //y=4.87 //x2=1.085 //y2=4.795
r209 (  33 68 ) resistor r=51.6429 //w=0.252 //l=0.34271 //layer=ply \
 //thickness=0.18 //x=1.01 //y=4.87 //x2=0.74 //y2=4.705
r210 (  32 66 ) resistor r=30.4513 //w=0.277 //l=0.243926 //layer=ply \
 //thickness=0.18 //x=0.915 //y=1.915 //x2=0.74 //y2=2.08
r211 (  31 70 ) resistor r=39.5823 //w=0.21 //l=0.173853 //layer=ply \
 //thickness=0.18 //x=0.915 //y=1.52 //x2=0.955 //y2=1.365
r212 (  31 32 ) resistor r=202.543 //w=0.094 //l=0.395 //layer=ply \
 //thickness=0.18 //x=0.915 //y=1.52 //x2=0.915 //y2=1.915
r213 (  30 70 ) resistor r=39.5823 //w=0.21 //l=0.173853 //layer=ply \
 //thickness=0.18 //x=0.915 //y=1.21 //x2=0.955 //y2=1.365
r214 (  29 69 ) resistor r=45.1352 //w=0.168 //l=0.173853 //layer=ply \
 //thickness=0.18 //x=0.915 //y=0.865 //x2=0.955 //y2=0.71
r215 (  29 30 ) resistor r=176.904 //w=0.094 //l=0.345 //layer=ply \
 //thickness=0.18 //x=0.915 //y=0.865 //x2=0.915 //y2=1.21
r216 (  28 60 ) resistor r=592.245 //w=0.094 //l=1.155 //layer=ply \
 //thickness=0.18 //x=4.77 //y=6.025 //x2=4.77 //y2=4.87
r217 (  27 52 ) resistor r=592.245 //w=0.094 //l=1.155 //layer=ply \
 //thickness=0.18 //x=4.33 //y=6.025 //x2=4.33 //y2=4.87
r218 (  26 45 ) resistor r=592.245 //w=0.094 //l=1.155 //layer=ply \
 //thickness=0.18 //x=1.45 //y=6.025 //x2=1.45 //y2=4.87
r219 (  25 33 ) resistor r=592.245 //w=0.094 //l=1.155 //layer=ply \
 //thickness=0.18 //x=1.01 //y=6.025 //x2=1.01 //y2=4.87
r220 (  24 57 ) resistor r=56.4043 //w=0.094 //l=0.11 //layer=ply \
 //thickness=0.18 //x=4.51 //y=1.365 //x2=4.62 //y2=1.365
r221 (  24 58 ) resistor r=56.4043 //w=0.094 //l=0.11 //layer=ply \
 //thickness=0.18 //x=4.51 //y=1.365 //x2=4.4 //y2=1.365
r222 (  23 38 ) resistor r=56.4043 //w=0.094 //l=0.11 //layer=ply \
 //thickness=0.18 //x=1.18 //y=1.365 //x2=1.29 //y2=1.365
r223 (  23 39 ) resistor r=56.4043 //w=0.094 //l=0.11 //layer=ply \
 //thickness=0.18 //x=1.18 //y=1.365 //x2=1.07 //y2=1.365
r224 (  21 79 ) resistor r=152 //w=0.17 //l=0.17 //layer=licon //count=1 \
 //x=4.44 //y=4.705 //x2=4.44 //y2=4.705
r225 (  19 21 ) resistor r=18.139 //w=0.187 //l=0.265 //layer=li \
 //thickness=0.1 //x=4.44 //y=4.44 //x2=4.44 //y2=4.705
r226 (  16 74 ) resistor r=152 //w=0.17 //l=0.17 //layer=licon //count=1 \
 //x=4.44 //y=2.08 //x2=4.44 //y2=2.08
r227 (  16 19 ) resistor r=161.54 //w=0.187 //l=2.36 //layer=li \
 //thickness=0.1 //x=4.44 //y=2.08 //x2=4.44 //y2=4.44
r228 (  13 68 ) resistor r=152 //w=0.17 //l=0.17 //layer=licon //count=1 \
 //x=0.74 //y=4.705 //x2=0.74 //y2=4.705
r229 (  11 13 ) resistor r=18.139 //w=0.187 //l=0.265 //layer=li \
 //thickness=0.1 //x=0.74 //y=4.44 //x2=0.74 //y2=4.705
r230 (  8 66 ) resistor r=152 //w=0.17 //l=0.17 //layer=licon //count=1 \
 //x=0.74 //y=2.08 //x2=0.74 //y2=2.08
r231 (  8 11 ) resistor r=161.54 //w=0.187 //l=2.36 //layer=li //thickness=0.1 \
 //x=0.74 //y=2.08 //x2=0.74 //y2=4.44
r232 (  6 19 ) resistor r=9.3 //w=0.17 //l=0.17 //layer=mcon //count=1 \
 //x=4.44 //y=4.44 //x2=4.44 //y2=4.44
r233 (  4 11 ) resistor r=9.3 //w=0.17 //l=0.17 //layer=mcon //count=1 \
 //x=0.74 //y=4.44 //x2=0.74 //y2=4.44
r234 (  2 4 ) resistor r=0.0717383 //w=0.224 //l=0.115 //layer=m1 \
 //thickness=0.36 //x=0.855 //y=4.44 //x2=0.74 //y2=4.44
r235 (  1 6 ) resistor r=0.0717383 //w=0.224 //l=0.115 //layer=m1 \
 //thickness=0.36 //x=4.325 //y=4.44 //x2=4.44 //y2=4.44
r236 (  1 2 ) resistor r=3.31107 //w=0.131 //l=3.47 //layer=m1 \
 //thickness=0.36 //x=4.325 //y=4.44 //x2=0.855 //y2=4.44
ends PM_VOTERN3X1_PCELL\%noxref_4

subckt PM_VOTERN3X1_PCELL\%noxref_5 ( 1 2 8 15 21 22 23 24 25 26 30 31 32 33 \
 34 36 39 42 43 44 45 46 47 48 49 53 55 58 59 60 61 74 )
c165 ( 74 0 ) capacitor c=0.0583848f //x=7.4 //y=2.08
c166 ( 61 0 ) capacitor c=0.0316774f //x=8.105 //y=1.21
c167 ( 60 0 ) capacitor c=0.0187384f //x=8.105 //y=0.865
c168 ( 59 0 ) capacitor c=0.0590362f //x=7.745 //y=4.795
c169 ( 58 0 ) capacitor c=0.0296075f //x=8.035 //y=4.795
c170 ( 55 0 ) capacitor c=0.0157912f //x=7.95 //y=1.365
c171 ( 53 0 ) capacitor c=0.0149844f //x=7.95 //y=0.71
c172 ( 49 0 ) capacitor c=0.0302441f //x=7.575 //y=1.915
c173 ( 48 0 ) capacitor c=0.0234157f //x=7.575 //y=1.52
c174 ( 47 0 ) capacitor c=0.0234376f //x=7.575 //y=1.21
c175 ( 46 0 ) capacitor c=0.0199931f //x=7.575 //y=0.865
c176 ( 45 0 ) capacitor c=0.0970773f //x=5.745 //y=1.915
c177 ( 44 0 ) capacitor c=0.0249466f //x=5.745 //y=1.56
c178 ( 43 0 ) capacitor c=0.0234397f //x=5.745 //y=1.25
c179 ( 42 0 ) capacitor c=0.0193195f //x=5.745 //y=0.905
c180 ( 39 0 ) capacitor c=0.0631944f //x=5.65 //y=4.87
c181 ( 36 0 ) capacitor c=0.0187941f //x=5.59 //y=1.405
c182 ( 34 0 ) capacitor c=0.0157803f //x=5.59 //y=0.75
c183 ( 33 0 ) capacitor c=0.010629f //x=5.285 //y=4.795
c184 ( 32 0 ) capacitor c=0.0194269f //x=5.575 //y=4.795
c185 ( 31 0 ) capacitor c=0.0365717f //x=5.215 //y=1.25
c186 ( 30 0 ) capacitor c=0.0175988f //x=5.215 //y=0.905
c187 ( 26 0 ) capacitor c=0.110622f //x=8.11 //y=6.025
c188 ( 25 0 ) capacitor c=0.154068f //x=7.67 //y=6.025
c189 ( 24 0 ) capacitor c=0.154291f //x=5.65 //y=6.025
c190 ( 23 0 ) capacitor c=0.110404f //x=5.21 //y=6.025
c191 ( 15 0 ) capacitor c=0.100999f //x=7.4 //y=2.08
c192 ( 8 0 ) capacitor c=0.109253f //x=5.92 //y=2.08
c193 ( 2 0 ) capacitor c=0.011507f //x=6.035 //y=2.08
c194 ( 1 0 ) capacitor c=0.0463146f //x=7.285 //y=2.08
r195 (  61 80 ) resistor r=45.1352 //w=0.168 //l=0.173853 //layer=ply \
 //thickness=0.18 //x=8.105 //y=1.21 //x2=8.065 //y2=1.365
r196 (  60 79 ) resistor r=45.1352 //w=0.168 //l=0.173853 //layer=ply \
 //thickness=0.18 //x=8.105 //y=0.865 //x2=8.065 //y2=0.71
r197 (  60 61 ) resistor r=176.904 //w=0.094 //l=0.345 //layer=ply \
 //thickness=0.18 //x=8.105 //y=0.865 //x2=8.105 //y2=1.21
r198 (  58 62 ) resistor r=26.9307 //w=0.15 //l=0.106066 //layer=ply \
 //thickness=0.18 //x=8.035 //y=4.795 //x2=8.11 //y2=4.87
r199 (  58 59 ) resistor r=148.702 //w=0.094 //l=0.29 //layer=ply \
 //thickness=0.18 //x=8.035 //y=4.795 //x2=7.745 //y2=4.795
r200 (  56 78 ) resistor r=10.701 //w=0.21 //l=0.115 //layer=ply \
 //thickness=0.18 //x=7.73 //y=1.365 //x2=7.615 //y2=1.365
r201 (  55 80 ) resistor r=5.52526 //w=0.168 //l=0.115 //layer=ply \
 //thickness=0.18 //x=7.95 //y=1.365 //x2=8.065 //y2=1.365
r202 (  54 77 ) resistor r=5.52526 //w=0.168 //l=0.115 //layer=ply \
 //thickness=0.18 //x=7.73 //y=0.71 //x2=7.615 //y2=0.71
r203 (  53 79 ) resistor r=5.52526 //w=0.168 //l=0.115 //layer=ply \
 //thickness=0.18 //x=7.95 //y=0.71 //x2=8.065 //y2=0.71
r204 (  53 54 ) resistor r=112.809 //w=0.094 //l=0.22 //layer=ply \
 //thickness=0.18 //x=7.95 //y=0.71 //x2=7.73 //y2=0.71
r205 (  50 59 ) resistor r=22.1787 //w=0.252 //l=0.106066 //layer=ply \
 //thickness=0.18 //x=7.67 //y=4.87 //x2=7.745 //y2=4.795
r206 (  50 76 ) resistor r=51.6429 //w=0.252 //l=0.34271 //layer=ply \
 //thickness=0.18 //x=7.67 //y=4.87 //x2=7.4 //y2=4.705
r207 (  49 74 ) resistor r=30.4513 //w=0.277 //l=0.243926 //layer=ply \
 //thickness=0.18 //x=7.575 //y=1.915 //x2=7.4 //y2=2.08
r208 (  48 78 ) resistor r=39.5823 //w=0.21 //l=0.173853 //layer=ply \
 //thickness=0.18 //x=7.575 //y=1.52 //x2=7.615 //y2=1.365
r209 (  48 49 ) resistor r=202.543 //w=0.094 //l=0.395 //layer=ply \
 //thickness=0.18 //x=7.575 //y=1.52 //x2=7.575 //y2=1.915
r210 (  47 78 ) resistor r=39.5823 //w=0.21 //l=0.173853 //layer=ply \
 //thickness=0.18 //x=7.575 //y=1.21 //x2=7.615 //y2=1.365
r211 (  46 77 ) resistor r=45.1352 //w=0.168 //l=0.173853 //layer=ply \
 //thickness=0.18 //x=7.575 //y=0.865 //x2=7.615 //y2=0.71
r212 (  46 47 ) resistor r=176.904 //w=0.094 //l=0.345 //layer=ply \
 //thickness=0.18 //x=7.575 //y=0.865 //x2=7.575 //y2=1.21
r213 (  45 70 ) resistor r=30.4513 //w=0.277 //l=0.243926 //layer=ply \
 //thickness=0.18 //x=5.745 //y=1.915 //x2=5.92 //y2=2.08
r214 (  44 68 ) resistor r=39.5823 //w=0.21 //l=0.173853 //layer=ply \
 //thickness=0.18 //x=5.745 //y=1.56 //x2=5.705 //y2=1.405
r215 (  44 45 ) resistor r=182.032 //w=0.094 //l=0.355 //layer=ply \
 //thickness=0.18 //x=5.745 //y=1.56 //x2=5.745 //y2=1.915
r216 (  43 68 ) resistor r=39.5823 //w=0.21 //l=0.173853 //layer=ply \
 //thickness=0.18 //x=5.745 //y=1.25 //x2=5.705 //y2=1.405
r217 (  42 67 ) resistor r=45.1352 //w=0.168 //l=0.173853 //layer=ply \
 //thickness=0.18 //x=5.745 //y=0.905 //x2=5.705 //y2=0.75
r218 (  42 43 ) resistor r=176.904 //w=0.094 //l=0.345 //layer=ply \
 //thickness=0.18 //x=5.745 //y=0.905 //x2=5.745 //y2=1.25
r219 (  39 72 ) resistor r=51.6429 //w=0.252 //l=0.34271 //layer=ply \
 //thickness=0.18 //x=5.65 //y=4.87 //x2=5.92 //y2=4.705
r220 (  37 66 ) resistor r=5.52526 //w=0.168 //l=0.115 //layer=ply \
 //thickness=0.18 //x=5.37 //y=1.405 //x2=5.255 //y2=1.405
r221 (  36 68 ) resistor r=10.701 //w=0.21 //l=0.115 //layer=ply \
 //thickness=0.18 //x=5.59 //y=1.405 //x2=5.705 //y2=1.405
r222 (  35 65 ) resistor r=5.52526 //w=0.168 //l=0.115 //layer=ply \
 //thickness=0.18 //x=5.37 //y=0.75 //x2=5.255 //y2=0.75
r223 (  34 67 ) resistor r=5.52526 //w=0.168 //l=0.115 //layer=ply \
 //thickness=0.18 //x=5.59 //y=0.75 //x2=5.705 //y2=0.75
r224 (  34 35 ) resistor r=112.809 //w=0.094 //l=0.22 //layer=ply \
 //thickness=0.18 //x=5.59 //y=0.75 //x2=5.37 //y2=0.75
r225 (  32 39 ) resistor r=22.1787 //w=0.252 //l=0.106066 //layer=ply \
 //thickness=0.18 //x=5.575 //y=4.795 //x2=5.65 //y2=4.87
r226 (  32 33 ) resistor r=148.702 //w=0.094 //l=0.29 //layer=ply \
 //thickness=0.18 //x=5.575 //y=4.795 //x2=5.285 //y2=4.795