// File: xnor2x1_pcell.spi.XNOR2X1_PCELL.pxi
// Created: Tue Oct 15 16:01:15 2024
// 
simulator lang=spectre
x_PM_XNOR2X1_PCELL\%noxref_1 ( N_noxref_1_c_6_p N_noxref_1_c_11_p \
 N_noxref_1_c_20_p N_noxref_1_c_138_p N_noxref_1_c_36_p N_noxref_1_c_23_p \
 N_noxref_1_c_29_p N_noxref_1_c_39_p N_noxref_1_c_40_p N_noxref_1_c_75_p \
 N_noxref_1_c_158_p N_noxref_1_c_84_p N_noxref_1_c_96_p N_noxref_1_c_1_p \
 N_noxref_1_c_2_p N_noxref_1_c_3_p N_noxref_1_c_4_p N_noxref_1_c_5_p \
 N_noxref_1_M0_noxref_s N_noxref_1_M1_noxref_d N_noxref_1_M3_noxref_d \
 N_noxref_1_M5_noxref_s )  PM_XNOR2X1_PCELL\%noxref_1
x_PM_XNOR2X1_PCELL\%noxref_2 ( N_noxref_2_c_173_p N_noxref_2_c_174_p \
 N_noxref_2_c_175_p N_noxref_2_c_176_p N_noxref_2_c_195_p N_noxref_2_c_250_p \
 N_noxref_2_c_210_p N_noxref_2_c_236_p N_noxref_2_c_237_p N_noxref_2_c_168_n \
 N_noxref_2_c_169_n N_noxref_2_c_170_n N_noxref_2_c_171_n N_noxref_2_c_172_n \
 N_noxref_2_M6_noxref_s N_noxref_2_M7_noxref_d N_noxref_2_M8_noxref_d \
 N_noxref_2_M12_noxref_d N_noxref_2_M16_noxref_s N_noxref_2_M17_noxref_d )  \
 PM_XNOR2X1_PCELL\%noxref_2
x_PM_XNOR2X1_PCELL\%noxref_3 ( N_noxref_3_c_326_n N_noxref_3_c_328_n \
 N_noxref_3_c_330_n N_noxref_3_c_335_n N_noxref_3_M0_noxref_g \
 N_noxref_3_M1_noxref_g N_noxref_3_M6_noxref_g N_noxref_3_M7_noxref_g \
 N_noxref_3_M8_noxref_g N_noxref_3_M9_noxref_g N_noxref_3_c_336_n \
 N_noxref_3_c_402_p N_noxref_3_c_403_p N_noxref_3_c_338_n N_noxref_3_c_379_n \
 N_noxref_3_c_380_n N_noxref_3_c_339_n N_noxref_3_c_389_p N_noxref_3_c_340_n \
 N_noxref_3_c_342_n N_noxref_3_c_343_n N_noxref_3_c_345_n N_noxref_3_c_421_p \
 N_noxref_3_c_346_n N_noxref_3_c_347_n N_noxref_3_c_348_n N_noxref_3_c_349_n \
 N_noxref_3_c_351_n N_noxref_3_c_352_n N_noxref_3_c_382_n )  \
 PM_XNOR2X1_PCELL\%noxref_3
x_PM_XNOR2X1_PCELL\%noxref_4 ( N_noxref_4_c_459_n N_noxref_4_c_468_n \
 N_noxref_4_c_471_n N_noxref_4_c_510_n N_noxref_4_c_486_n N_noxref_4_c_489_n \
 N_noxref_4_c_474_n N_noxref_4_c_477_n N_noxref_4_M4_noxref_g \
 N_noxref_4_M14_noxref_g N_noxref_4_M15_noxref_g N_noxref_4_c_559_p \
 N_noxref_4_c_560_p N_noxref_4_c_561_p N_noxref_4_c_549_p N_noxref_4_c_563_p \
 N_noxref_4_c_550_p N_noxref_4_c_565_p N_noxref_4_c_551_p N_noxref_4_c_544_p \
 N_noxref_4_M0_noxref_d N_noxref_4_M6_noxref_d )  PM_XNOR2X1_PCELL\%noxref_4
x_PM_XNOR2X1_PCELL\%noxref_5 ( N_noxref_5_c_657_n N_noxref_5_c_655_n \
 N_noxref_5_c_640_n N_noxref_5_c_642_n N_noxref_5_c_628_n N_noxref_5_c_663_n \
 N_noxref_5_c_629_n N_noxref_5_c_645_n N_noxref_5_c_647_n N_noxref_5_c_630_n \
 N_noxref_5_c_676_n N_noxref_5_c_632_n N_noxref_5_M2_noxref_d \
 N_noxref_5_M4_noxref_d N_noxref_5_M10_noxref_d N_noxref_5_M14_noxref_d )  \
 PM_XNOR2X1_PCELL\%noxref_5
x_PM_XNOR2X1_PCELL\%noxref_6 ( N_noxref_6_c_777_n N_noxref_6_c_823_n \
 N_noxref_6_c_795_n N_noxref_6_c_801_n N_noxref_6_c_783_n N_noxref_6_c_803_n \
 N_noxref_6_c_785_n N_noxref_6_c_786_n N_noxref_6_c_787_n N_noxref_6_c_806_n \
 N_noxref_6_c_807_n N_noxref_6_M2_noxref_g N_noxref_6_M12_noxref_g \
 N_noxref_6_M13_noxref_g N_noxref_6_c_826_n N_noxref_6_c_829_n \
 N_noxref_6_c_831_n N_noxref_6_c_834_n N_noxref_6_c_879_n N_noxref_6_c_880_n \
 N_noxref_6_c_836_n N_noxref_6_c_837_n N_noxref_6_c_816_n \
 N_noxref_6_M5_noxref_d N_noxref_6_M16_noxref_d )  PM_XNOR2X1_PCELL\%noxref_6
x_PM_XNOR2X1_PCELL\%noxref_7 ( N_noxref_7_c_976_n N_noxref_7_c_984_n \
 N_noxref_7_c_947_n N_noxref_7_c_1018_n N_noxref_7_c_985_n N_noxref_7_c_950_n \
 N_noxref_7_c_951_n N_noxref_7_M3_noxref_g N_noxref_7_M5_noxref_g \
 N_noxref_7_M10_noxref_g N_noxref_7_M11_noxref_g N_noxref_7_M16_noxref_g \
 N_noxref_7_M17_noxref_g N_noxref_7_c_956_n N_noxref_7_c_958_n \
 N_noxref_7_c_959_n N_noxref_7_c_960_n N_noxref_7_c_961_n N_noxref_7_c_962_n \
 N_noxref_7_c_963_n N_noxref_7_c_965_n N_noxref_7_c_966_n N_noxref_7_c_968_n \
 N_noxref_7_c_1091_n N_noxref_7_c_999_n N_noxref_7_c_969_n N_noxref_7_c_1095_n \
 N_noxref_7_c_1000_n N_noxref_7_c_970_n N_noxref_7_c_1099_n \
 N_noxref_7_c_1100_n N_noxref_7_c_972_n N_noxref_7_c_1011_n N_noxref_7_c_973_n \
 )  PM_XNOR2X1_PCELL\%noxref_7
x_PM_XNOR2X1_PCELL\%noxref_8 ( N_noxref_8_c_1119_n N_noxref_8_c_1124_n \
 N_noxref_8_c_1126_n N_noxref_8_c_1127_n N_noxref_8_M8_noxref_s \
 N_noxref_8_M9_noxref_d N_noxref_8_M11_noxref_d )  PM_XNOR2X1_PCELL\%noxref_8
x_PM_XNOR2X1_PCELL\%noxref_9 ( N_noxref_9_c_1159_n N_noxref_9_c_1160_n \
 N_noxref_9_c_1164_n N_noxref_9_c_1168_n N_noxref_9_c_1169_n \
 N_noxref_9_c_1172_n N_noxref_9_M1_noxref_s )  PM_XNOR2X1_PCELL\%noxref_9
x_PM_XNOR2X1_PCELL\%noxref_10 ( N_noxref_10_c_1211_n N_noxref_10_c_1216_n \
 N_noxref_10_c_1217_n N_noxref_10_c_1218_n N_noxref_10_M12_noxref_s \
 N_noxref_10_M13_noxref_d N_noxref_10_M15_noxref_d )  \
 PM_XNOR2X1_PCELL\%noxref_10
x_PM_XNOR2X1_PCELL\%noxref_11 ( N_noxref_11_c_1278_n N_noxref_11_c_1254_n \
 N_noxref_11_c_1258_n N_noxref_11_c_1262_n N_noxref_11_c_1263_n \
 N_noxref_11_c_1266_n N_noxref_11_M3_noxref_s )  PM_XNOR2X1_PCELL\%noxref_11
cc_1 ( N_noxref_1_c_1_p N_noxref_2_c_168_n ) capacitor c=0.00989031f //x=0.63 \
 //y=0 //x2=0.74 //y2=7.4
cc_2 ( N_noxref_1_c_2_p N_noxref_2_c_169_n ) capacitor c=0.00582097f //x=2.22 \
 //y=0 //x2=2.22 //y2=7.4
cc_3 ( N_noxref_1_c_3_p N_noxref_2_c_170_n ) capacitor c=0.0057235f //x=5.55 \
 //y=0 //x2=5.55 //y2=7.4
cc_4 ( N_noxref_1_c_4_p N_noxref_2_c_171_n ) capacitor c=0.00478842f //x=8.88 \
 //y=0 //x2=8.88 //y2=7.4
cc_5 ( N_noxref_1_c_5_p N_noxref_2_c_172_n ) capacitor c=0.00989031f //x=10.47 \
 //y=0 //x2=10.36 //y2=7.4
cc_6 ( N_noxref_1_c_6_p N_noxref_3_c_326_n ) capacitor c=0.00375416f //x=10.36 \
 //y=0 //x2=3.215 //y2=4.07
cc_7 ( N_noxref_1_c_2_p N_noxref_3_c_326_n ) capacitor c=0.00249386f //x=2.22 \
 //y=0 //x2=3.215 //y2=4.07
cc_8 ( N_noxref_1_c_6_p N_noxref_3_c_328_n ) capacitor c=0.00155455f //x=10.36 \
 //y=0 //x2=0.855 //y2=4.07
cc_9 ( N_noxref_1_M0_noxref_s N_noxref_3_c_328_n ) capacitor c=5.91312e-19 \
 //x=0.495 //y=0.37 //x2=0.855 //y2=4.07
cc_10 ( N_noxref_1_c_6_p N_noxref_3_c_330_n ) capacitor c=0.00187124f \
 //x=10.36 //y=0 //x2=0.74 //y2=2.085
cc_11 ( N_noxref_1_c_11_p N_noxref_3_c_330_n ) capacitor c=8.01092e-19 \
 //x=1.03 //y=0.535 //x2=0.74 //y2=2.085
cc_12 ( N_noxref_1_c_1_p N_noxref_3_c_330_n ) capacitor c=0.028767f //x=0.63 \
 //y=0 //x2=0.74 //y2=2.085
cc_13 ( N_noxref_1_c_2_p N_noxref_3_c_330_n ) capacitor c=0.00133655f //x=2.22 \
 //y=0 //x2=0.74 //y2=2.085
cc_14 ( N_noxref_1_M0_noxref_s N_noxref_3_c_330_n ) capacitor c=0.0110965f \
 //x=0.495 //y=0.37 //x2=0.74 //y2=2.085
cc_15 ( N_noxref_1_c_2_p N_noxref_3_c_335_n ) capacitor c=0.0152607f //x=2.22 \
 //y=0 //x2=3.33 //y2=2.08
cc_16 ( N_noxref_1_c_11_p N_noxref_3_c_336_n ) capacitor c=0.0120496f //x=1.03 \
 //y=0.535 //x2=0.85 //y2=0.91
cc_17 ( N_noxref_1_M0_noxref_s N_noxref_3_c_336_n ) capacitor c=0.0316657f \
 //x=0.495 //y=0.37 //x2=0.85 //y2=0.91
cc_18 ( N_noxref_1_c_1_p N_noxref_3_c_338_n ) capacitor c=0.0124051f //x=0.63 \
 //y=0 //x2=0.85 //y2=1.92
cc_19 ( N_noxref_1_M0_noxref_s N_noxref_3_c_339_n ) capacitor c=0.00483274f \
 //x=0.495 //y=0.37 //x2=1.225 //y2=0.755
cc_20 ( N_noxref_1_c_20_p N_noxref_3_c_340_n ) capacitor c=0.0118602f \
 //x=1.515 //y=0.535 //x2=1.38 //y2=0.91
cc_21 ( N_noxref_1_M0_noxref_s N_noxref_3_c_340_n ) capacitor c=0.0143355f \
 //x=0.495 //y=0.37 //x2=1.38 //y2=0.91
cc_22 ( N_noxref_1_M0_noxref_s N_noxref_3_c_342_n ) capacitor c=0.0074042f \
 //x=0.495 //y=0.37 //x2=1.38 //y2=1.255
cc_23 ( N_noxref_1_c_23_p N_noxref_3_c_343_n ) capacitor c=0.00135046f \
 //x=3.315 //y=0 //x2=3.135 //y2=0.865
cc_24 ( N_noxref_1_M1_noxref_d N_noxref_3_c_343_n ) capacitor c=0.00220047f \
 //x=3.21 //y=0.865 //x2=3.135 //y2=0.865
cc_25 ( N_noxref_1_M1_noxref_d N_noxref_3_c_345_n ) capacitor c=0.00255985f \
 //x=3.21 //y=0.865 //x2=3.135 //y2=1.21
cc_26 ( N_noxref_1_c_2_p N_noxref_3_c_346_n ) capacitor c=0.0114882f //x=2.22 \
 //y=0 //x2=3.135 //y2=1.915
cc_27 ( N_noxref_1_M1_noxref_d N_noxref_3_c_347_n ) capacitor c=0.0131326f \
 //x=3.21 //y=0.865 //x2=3.51 //y2=0.71
cc_28 ( N_noxref_1_M1_noxref_d N_noxref_3_c_348_n ) capacitor c=0.00193127f \
 //x=3.21 //y=0.865 //x2=3.51 //y2=1.365
cc_29 ( N_noxref_1_c_29_p N_noxref_3_c_349_n ) capacitor c=0.00130622f \
 //x=5.38 //y=0 //x2=3.665 //y2=0.865
cc_30 ( N_noxref_1_M1_noxref_d N_noxref_3_c_349_n ) capacitor c=0.00257848f \
 //x=3.21 //y=0.865 //x2=3.665 //y2=0.865
cc_31 ( N_noxref_1_M1_noxref_d N_noxref_3_c_351_n ) capacitor c=0.00255985f \
 //x=3.21 //y=0.865 //x2=3.665 //y2=1.21
cc_32 ( N_noxref_1_c_11_p N_noxref_3_c_352_n ) capacitor c=2.1838e-19 //x=1.03 \
 //y=0.535 //x2=0.74 //y2=2.085
cc_33 ( N_noxref_1_c_1_p N_noxref_3_c_352_n ) capacitor c=0.0108179f //x=0.63 \
 //y=0 //x2=0.74 //y2=2.085
cc_34 ( N_noxref_1_M0_noxref_s N_noxref_3_c_352_n ) capacitor c=0.00655738f \
 //x=0.495 //y=0.37 //x2=0.74 //y2=2.085
cc_35 ( N_noxref_1_c_6_p N_noxref_4_c_459_n ) capacitor c=0.0533435f //x=10.36 \
 //y=0 //x2=7.655 //y2=2.59
cc_36 ( N_noxref_1_c_36_p N_noxref_4_c_459_n ) capacitor c=0.0015622f //x=2.05 \
 //y=0 //x2=7.655 //y2=2.59
cc_37 ( N_noxref_1_c_23_p N_noxref_4_c_459_n ) capacitor c=0.00280978f \
 //x=3.315 //y=0 //x2=7.655 //y2=2.59
cc_38 ( N_noxref_1_c_29_p N_noxref_4_c_459_n ) capacitor c=0.00345949f \
 //x=5.38 //y=0 //x2=7.655 //y2=2.59
cc_39 ( N_noxref_1_c_39_p N_noxref_4_c_459_n ) capacitor c=0.00280978f \
 //x=6.645 //y=0 //x2=7.655 //y2=2.59
cc_40 ( N_noxref_1_c_40_p N_noxref_4_c_459_n ) capacitor c=9.24405e-19 \
 //x=8.71 //y=0 //x2=7.655 //y2=2.59
cc_41 ( N_noxref_1_c_2_p N_noxref_4_c_459_n ) capacitor c=0.038878f //x=2.22 \
 //y=0 //x2=7.655 //y2=2.59
cc_42 ( N_noxref_1_c_3_p N_noxref_4_c_459_n ) capacitor c=0.0338055f //x=5.55 \
 //y=0 //x2=7.655 //y2=2.59
cc_43 ( N_noxref_1_M0_noxref_s N_noxref_4_c_459_n ) capacitor c=0.00248261f \
 //x=0.495 //y=0.37 //x2=7.655 //y2=2.59
cc_44 ( N_noxref_1_c_6_p N_noxref_4_c_468_n ) capacitor c=0.00231366f \
 //x=10.36 //y=0 //x2=1.595 //y2=2.59
cc_45 ( N_noxref_1_c_2_p N_noxref_4_c_468_n ) capacitor c=0.00209945f //x=2.22 \
 //y=0 //x2=1.595 //y2=2.59
cc_46 ( N_noxref_1_M0_noxref_s N_noxref_4_c_468_n ) capacitor c=0.00120637f \
 //x=0.495 //y=0.37 //x2=1.595 //y2=2.59
cc_47 ( N_noxref_1_c_6_p N_noxref_4_c_471_n ) capacitor c=0.00129718f \
 //x=10.36 //y=0 //x2=1.395 //y2=2.08
cc_48 ( N_noxref_1_c_2_p N_noxref_4_c_471_n ) capacitor c=0.0263587f //x=2.22 \
 //y=0 //x2=1.395 //y2=2.08
cc_49 ( N_noxref_1_M0_noxref_s N_noxref_4_c_471_n ) capacitor c=0.00949589f \
 //x=0.495 //y=0.37 //x2=1.395 //y2=2.08
cc_50 ( N_noxref_1_c_1_p N_noxref_4_c_474_n ) capacitor c=9.71e-19 //x=0.63 \
 //y=0 //x2=1.48 //y2=2.59
cc_51 ( N_noxref_1_c_2_p N_noxref_4_c_474_n ) capacitor c=5.56859e-19 //x=2.22 \
 //y=0 //x2=1.48 //y2=2.59
cc_52 ( N_noxref_1_M0_noxref_s N_noxref_4_c_474_n ) capacitor c=2.30929e-19 \
 //x=0.495 //y=0.37 //x2=1.48 //y2=2.59
cc_53 ( N_noxref_1_c_3_p N_noxref_4_c_477_n ) capacitor c=6.92592e-19 //x=5.55 \
 //y=0 //x2=7.77 //y2=2.08
cc_54 ( N_noxref_1_c_4_p N_noxref_4_c_477_n ) capacitor c=0.00185226f //x=8.88 \
 //y=0 //x2=7.77 //y2=2.08
cc_55 ( N_noxref_1_c_6_p N_noxref_4_M0_noxref_d ) capacitor c=0.00136354f \
 //x=10.36 //y=0 //x2=0.925 //y2=0.91
cc_56 ( N_noxref_1_c_11_p N_noxref_4_M0_noxref_d ) capacitor c=0.0151737f \
 //x=1.03 //y=0.535 //x2=0.925 //y2=0.91
cc_57 ( N_noxref_1_c_1_p N_noxref_4_M0_noxref_d ) capacitor c=0.0094373f \
 //x=0.63 //y=0 //x2=0.925 //y2=0.91
cc_58 ( N_noxref_1_c_2_p N_noxref_4_M0_noxref_d ) capacitor c=0.00949241f \
 //x=2.22 //y=0 //x2=0.925 //y2=0.91
cc_59 ( N_noxref_1_c_5_p N_noxref_4_M0_noxref_d ) capacitor c=2.29264e-19 \
 //x=10.47 //y=0 //x2=0.925 //y2=0.91
cc_60 ( N_noxref_1_M0_noxref_s N_noxref_4_M0_noxref_d ) capacitor c=0.076995f \
 //x=0.495 //y=0.37 //x2=0.925 //y2=0.91
cc_61 ( N_noxref_1_c_3_p N_noxref_5_c_628_n ) capacitor c=0.0430893f //x=5.55 \
 //y=0 //x2=4.725 //y2=1.65
cc_62 ( N_noxref_1_c_2_p N_noxref_5_c_629_n ) capacitor c=0.00105873f //x=2.22 \
 //y=0 //x2=4.81 //y2=3.7
cc_63 ( N_noxref_1_c_4_p N_noxref_5_c_630_n ) capacitor c=0.0448856f //x=8.88 \
 //y=0 //x2=8.055 //y2=1.65
cc_64 ( N_noxref_1_M5_noxref_s N_noxref_5_c_630_n ) capacitor c=3.53049e-19 \
 //x=9.375 //y=0.37 //x2=8.055 //y2=1.65
cc_65 ( N_noxref_1_c_3_p N_noxref_5_c_632_n ) capacitor c=0.00100332f //x=5.55 \
 //y=0 //x2=8.14 //y2=3.7
cc_66 ( N_noxref_1_c_2_p N_noxref_5_M2_noxref_d ) capacitor c=8.60262e-19 \
 //x=2.22 //y=0 //x2=4.18 //y2=0.905
cc_67 ( N_noxref_1_c_3_p N_noxref_5_M2_noxref_d ) capacitor c=0.00605305f \
 //x=5.55 //y=0 //x2=4.18 //y2=0.905
cc_68 ( N_noxref_1_M1_noxref_d N_noxref_5_M2_noxref_d ) capacitor \
 c=0.00143464f //x=3.21 //y=0.865 //x2=4.18 //y2=0.905
cc_69 ( N_noxref_1_c_3_p N_noxref_5_M4_noxref_d ) capacitor c=8.60262e-19 \
 //x=5.55 //y=0 //x2=7.51 //y2=0.905
cc_70 ( N_noxref_1_c_4_p N_noxref_5_M4_noxref_d ) capacitor c=0.00605305f \
 //x=8.88 //y=0 //x2=7.51 //y2=0.905
cc_71 ( N_noxref_1_M3_noxref_d N_noxref_5_M4_noxref_d ) capacitor \
 c=0.00143464f //x=6.54 //y=0.865 //x2=7.51 //y2=0.905
cc_72 ( N_noxref_1_M5_noxref_s N_noxref_5_M4_noxref_d ) capacitor \
 c=2.07711e-19 //x=9.375 //y=0.37 //x2=7.51 //y2=0.905
cc_73 ( N_noxref_1_c_6_p N_noxref_6_c_777_n ) capacitor c=0.0292011f //x=10.36 \
 //y=0 //x2=9.505 //y2=2.96
cc_74 ( N_noxref_1_c_40_p N_noxref_6_c_777_n ) capacitor c=0.00208984f \
 //x=8.71 //y=0 //x2=9.505 //y2=2.96
cc_75 ( N_noxref_1_c_75_p N_noxref_6_c_777_n ) capacitor c=0.00129597f \
 //x=9.415 //y=0 //x2=9.505 //y2=2.96
cc_76 ( N_noxref_1_c_3_p N_noxref_6_c_777_n ) capacitor c=0.00750857f //x=5.55 \
 //y=0 //x2=9.505 //y2=2.96
cc_77 ( N_noxref_1_c_4_p N_noxref_6_c_777_n ) capacitor c=0.0144849f //x=8.88 \
 //y=0 //x2=9.505 //y2=2.96
cc_78 ( N_noxref_1_M5_noxref_s N_noxref_6_c_777_n ) capacitor c=0.00263458f \
 //x=9.375 //y=0.37 //x2=9.505 //y2=2.96
cc_79 ( N_noxref_1_c_2_p N_noxref_6_c_783_n ) capacitor c=7.03122e-19 //x=2.22 \
 //y=0 //x2=4.44 //y2=2.08
cc_80 ( N_noxref_1_c_3_p N_noxref_6_c_783_n ) capacitor c=0.00165751f //x=5.55 \
 //y=0 //x2=4.44 //y2=2.08
cc_81 ( N_noxref_1_c_5_p N_noxref_6_c_785_n ) capacitor c=0.00114558f \
 //x=10.47 //y=0 //x2=9.62 //y2=2.96
cc_82 ( N_noxref_1_M5_noxref_s N_noxref_6_c_786_n ) capacitor c=0.00178664f \
 //x=9.375 //y=0.37 //x2=9.905 //y2=2.08
cc_83 ( N_noxref_1_c_6_p N_noxref_6_c_787_n ) capacitor c=0.00128871f \
 //x=10.36 //y=0 //x2=9.705 //y2=2.08
cc_84 ( N_noxref_1_c_84_p N_noxref_6_c_787_n ) capacitor c=0.00178664f //x=9.9 \
 //y=0.535 //x2=9.705 //y2=2.08
cc_85 ( N_noxref_1_c_4_p N_noxref_6_c_787_n ) capacitor c=0.0291959f //x=8.88 \
 //y=0 //x2=9.705 //y2=2.08
cc_86 ( N_noxref_1_M5_noxref_s N_noxref_6_c_787_n ) capacitor c=0.00570196f \
 //x=9.375 //y=0.37 //x2=9.705 //y2=2.08
cc_87 ( N_noxref_1_c_6_p N_noxref_6_M5_noxref_d ) capacitor c=0.00128496f \
 //x=10.36 //y=0 //x2=9.795 //y2=0.91
cc_88 ( N_noxref_1_c_4_p N_noxref_6_M5_noxref_d ) capacitor c=0.00945919f \
 //x=8.88 //y=0 //x2=9.795 //y2=0.91
cc_89 ( N_noxref_1_c_5_p N_noxref_6_M5_noxref_d ) capacitor c=0.00966656f \
 //x=10.47 //y=0 //x2=9.795 //y2=0.91
cc_90 ( N_noxref_1_M5_noxref_s N_noxref_6_M5_noxref_d ) capacitor c=0.0920885f \
 //x=9.375 //y=0.37 //x2=9.795 //y2=0.91
cc_91 ( N_noxref_1_c_6_p N_noxref_7_c_947_n ) capacitor c=0.0127184f //x=10.36 \
 //y=0 //x2=10.245 //y2=3.33
cc_92 ( N_noxref_1_c_84_p N_noxref_7_c_947_n ) capacitor c=8.90535e-19 //x=9.9 \
 //y=0.535 //x2=10.245 //y2=3.33
cc_93 ( N_noxref_1_M5_noxref_s N_noxref_7_c_947_n ) capacitor c=0.00106019f \
 //x=9.375 //y=0.37 //x2=10.245 //y2=3.33
cc_94 ( N_noxref_1_c_3_p N_noxref_7_c_950_n ) capacitor c=0.0152684f //x=5.55 \
 //y=0 //x2=6.66 //y2=2.08
cc_95 ( N_noxref_1_c_6_p N_noxref_7_c_951_n ) capacitor c=0.00184963f \
 //x=10.36 //y=0 //x2=10.36 //y2=2.085
cc_96 ( N_noxref_1_c_96_p N_noxref_7_c_951_n ) capacitor c=7.87839e-19 \
 //x=10.385 //y=0.535 //x2=10.36 //y2=2.085
cc_97 ( N_noxref_1_c_4_p N_noxref_7_c_951_n ) capacitor c=0.00146529f //x=8.88 \
 //y=0 //x2=10.36 //y2=2.085
cc_98 ( N_noxref_1_c_5_p N_noxref_7_c_951_n ) capacitor c=0.0290276f //x=10.47 \
 //y=0 //x2=10.36 //y2=2.085
cc_99 ( N_noxref_1_M5_noxref_s N_noxref_7_c_951_n ) capacitor c=0.0109271f \
 //x=9.375 //y=0.37 //x2=10.36 //y2=2.085
cc_100 ( N_noxref_1_c_39_p N_noxref_7_c_956_n ) capacitor c=0.00135046f \
 //x=6.645 //y=0 //x2=6.465 //y2=0.865
cc_101 ( N_noxref_1_M3_noxref_d N_noxref_7_c_956_n ) capacitor c=0.00220047f \
 //x=6.54 //y=0.865 //x2=6.465 //y2=0.865
cc_102 ( N_noxref_1_M3_noxref_d N_noxref_7_c_958_n ) capacitor c=0.00255985f \
 //x=6.54 //y=0.865 //x2=6.465 //y2=1.21
cc_103 ( N_noxref_1_c_3_p N_noxref_7_c_959_n ) capacitor c=0.00176175f \
 //x=5.55 //y=0 //x2=6.465 //y2=1.52
cc_104 ( N_noxref_1_c_3_p N_noxref_7_c_960_n ) capacitor c=0.0114882f //x=5.55 \
 //y=0 //x2=6.465 //y2=1.915
cc_105 ( N_noxref_1_M3_noxref_d N_noxref_7_c_961_n ) capacitor c=0.0131326f \
 //x=6.54 //y=0.865 //x2=6.84 //y2=0.71
cc_106 ( N_noxref_1_M3_noxref_d N_noxref_7_c_962_n ) capacitor c=0.00193127f \
 //x=6.54 //y=0.865 //x2=6.84 //y2=1.365
cc_107 ( N_noxref_1_c_40_p N_noxref_7_c_963_n ) capacitor c=0.00130622f \
 //x=8.71 //y=0 //x2=6.995 //y2=0.865
cc_108 ( N_noxref_1_M3_noxref_d N_noxref_7_c_963_n ) capacitor c=0.00257848f \
 //x=6.54 //y=0.865 //x2=6.995 //y2=0.865
cc_109 ( N_noxref_1_M3_noxref_d N_noxref_7_c_965_n ) capacitor c=0.00255985f \
 //x=6.54 //y=0.865 //x2=6.995 //y2=1.21
cc_110 ( N_noxref_1_c_84_p N_noxref_7_c_966_n ) capacitor c=0.0119174f //x=9.9 \
 //y=0.535 //x2=9.72 //y2=0.91
cc_111 ( N_noxref_1_M5_noxref_s N_noxref_7_c_966_n ) capacitor c=0.0143355f \
 //x=9.375 //y=0.37 //x2=9.72 //y2=0.91
cc_112 ( N_noxref_1_M5_noxref_s N_noxref_7_c_968_n ) capacitor c=0.0074042f \
 //x=9.375 //y=0.37 //x2=9.72 //y2=1.255
cc_113 ( N_noxref_1_M5_noxref_s N_noxref_7_c_969_n ) capacitor c=0.00489f \
 //x=9.375 //y=0.37 //x2=10.095 //y2=0.755
cc_114 ( N_noxref_1_c_96_p N_noxref_7_c_970_n ) capacitor c=0.0123171f \
 //x=10.385 //y=0.535 //x2=10.25 //y2=0.91
cc_115 ( N_noxref_1_M5_noxref_s N_noxref_7_c_970_n ) capacitor c=0.0318096f \
 //x=9.375 //y=0.37 //x2=10.25 //y2=0.91
cc_116 ( N_noxref_1_c_5_p N_noxref_7_c_972_n ) capacitor c=0.0124811f \
 //x=10.47 //y=0 //x2=10.25 //y2=1.92
cc_117 ( N_noxref_1_c_96_p N_noxref_7_c_973_n ) capacitor c=2.1838e-19 \
 //x=10.385 //y=0.535 //x2=10.25 //y2=2.085
cc_118 ( N_noxref_1_c_5_p N_noxref_7_c_973_n ) capacitor c=0.0108179f \
 //x=10.47 //y=0 //x2=10.25 //y2=2.085
cc_119 ( N_noxref_1_M5_noxref_s N_noxref_7_c_973_n ) capacitor c=0.00655738f \
 //x=9.375 //y=0.37 //x2=10.25 //y2=2.085
cc_120 ( N_noxref_1_M0_noxref_s N_noxref_9_c_1159_n ) capacitor c=0.0013253f \
 //x=0.495 //y=0.37 //x2=2.915 //y2=1.495
cc_121 ( N_noxref_1_c_6_p N_noxref_9_c_1160_n ) capacitor c=0.00530453f \
 //x=10.36 //y=0 //x2=3.8 //y2=1.58
cc_122 ( N_noxref_1_c_23_p N_noxref_9_c_1160_n ) capacitor c=0.00112921f \
 //x=3.315 //y=0 //x2=3.8 //y2=1.58
cc_123 ( N_noxref_1_c_29_p N_noxref_9_c_1160_n ) capacitor c=0.00182339f \
 //x=5.38 //y=0 //x2=3.8 //y2=1.58
cc_124 ( N_noxref_1_M1_noxref_d N_noxref_9_c_1160_n ) capacitor c=0.00879185f \
 //x=3.21 //y=0.865 //x2=3.8 //y2=1.58
cc_125 ( N_noxref_1_c_6_p N_noxref_9_c_1164_n ) capacitor c=0.00271584f \
 //x=10.36 //y=0 //x2=3.885 //y2=0.615
cc_126 ( N_noxref_1_c_29_p N_noxref_9_c_1164_n ) capacitor c=0.014783f \
 //x=5.38 //y=0 //x2=3.885 //y2=0.615
cc_127 ( N_noxref_1_c_5_p N_noxref_9_c_1164_n ) capacitor c=0.00145873f \
 //x=10.47 //y=0 //x2=3.885 //y2=0.615
cc_128 ( N_noxref_1_M1_noxref_d N_noxref_9_c_1164_n ) capacitor c=0.033812f \
 //x=3.21 //y=0.865 //x2=3.885 //y2=0.615
cc_129 ( N_noxref_1_c_2_p N_noxref_9_c_1168_n ) capacitor c=2.91423e-19 \
 //x=2.22 //y=0 //x2=3.885 //y2=1.495
cc_130 ( N_noxref_1_c_6_p N_noxref_9_c_1169_n ) capacitor c=0.0111902f \
 //x=10.36 //y=0 //x2=4.77 //y2=0.53
cc_131 ( N_noxref_1_c_29_p N_noxref_9_c_1169_n ) capacitor c=0.0375381f \
 //x=5.38 //y=0 //x2=4.77 //y2=0.53
cc_132 ( N_noxref_1_c_5_p N_noxref_9_c_1169_n ) capacitor c=0.00199432f \
 //x=10.47 //y=0 //x2=4.77 //y2=0.53
cc_133 ( N_noxref_1_c_6_p N_noxref_9_c_1172_n ) capacitor c=0.00271457f \
 //x=10.36 //y=0 //x2=4.855 //y2=0.615
cc_134 ( N_noxref_1_c_29_p N_noxref_9_c_1172_n ) capacitor c=0.0147189f \
 //x=5.38 //y=0 //x2=4.855 //y2=0.615
cc_135 ( N_noxref_1_c_3_p N_noxref_9_c_1172_n ) capacitor c=0.0431718f \
 //x=5.55 //y=0 //x2=4.855 //y2=0.615
cc_136 ( N_noxref_1_c_5_p N_noxref_9_c_1172_n ) capacitor c=0.00145015f \
 //x=10.47 //y=0 //x2=4.855 //y2=0.615
cc_137 ( N_noxref_1_c_6_p N_noxref_9_M1_noxref_s ) capacitor c=0.00271584f \
 //x=10.36 //y=0 //x2=2.78 //y2=0.365
cc_138 ( N_noxref_1_c_138_p N_noxref_9_M1_noxref_s ) capacitor c=0.0013253f \
 //x=1.6 //y=0.45 //x2=2.78 //y2=0.365
cc_139 ( N_noxref_1_c_23_p N_noxref_9_M1_noxref_s ) capacitor c=0.014783f \
 //x=3.315 //y=0 //x2=2.78 //y2=0.365
cc_140 ( N_noxref_1_c_2_p N_noxref_9_M1_noxref_s ) capacitor c=0.058339f \
 //x=2.22 //y=0 //x2=2.78 //y2=0.365
cc_141 ( N_noxref_1_c_3_p N_noxref_9_M1_noxref_s ) capacitor c=0.00200438f \
 //x=5.55 //y=0 //x2=2.78 //y2=0.365
cc_142 ( N_noxref_1_c_5_p N_noxref_9_M1_noxref_s ) capacitor c=0.00145873f \
 //x=10.47 //y=0 //x2=2.78 //y2=0.365
cc_143 ( N_noxref_1_M1_noxref_d N_noxref_9_M1_noxref_s ) capacitor \
 c=0.0334197f //x=3.21 //y=0.865 //x2=2.78 //y2=0.365
cc_144 ( N_noxref_1_c_6_p N_noxref_11_c_1254_n ) capacitor c=0.00530453f \
 //x=10.36 //y=0 //x2=7.13 //y2=1.58
cc_145 ( N_noxref_1_c_39_p N_noxref_11_c_1254_n ) capacitor c=0.00112921f \
 //x=6.645 //y=0 //x2=7.13 //y2=1.58
cc_146 ( N_noxref_1_c_40_p N_noxref_11_c_1254_n ) capacitor c=0.00182339f \
 //x=8.71 //y=0 //x2=7.13 //y2=1.58
cc_147 ( N_noxref_1_M3_noxref_d N_noxref_11_c_1254_n ) capacitor c=0.00879185f \
 //x=6.54 //y=0.865 //x2=7.13 //y2=1.58
cc_148 ( N_noxref_1_c_6_p N_noxref_11_c_1258_n ) capacitor c=0.00271584f \
 //x=10.36 //y=0 //x2=7.215 //y2=0.615
cc_149 ( N_noxref_1_c_40_p N_noxref_11_c_1258_n ) capacitor c=0.014783f \
 //x=8.71 //y=0 //x2=7.215 //y2=0.615
cc_150 ( N_noxref_1_c_5_p N_noxref_11_c_1258_n ) capacitor c=0.00145873f \
 //x=10.47 //y=0 //x2=7.215 //y2=0.615
cc_151 ( N_noxref_1_M3_noxref_d N_noxref_11_c_1258_n ) capacitor c=0.033812f \
 //x=6.54 //y=0.865 //x2=7.215 //y2=0.615
cc_152 ( N_noxref_1_c_3_p N_noxref_11_c_1262_n ) capacitor c=2.91423e-19 \
 //x=5.55 //y=0 //x2=7.215 //y2=1.495
cc_153 ( N_noxref_1_c_6_p N_noxref_11_c_1263_n ) capacitor c=0.0112826f \
 //x=10.36 //y=0 //x2=8.1 //y2=0.53
cc_154 ( N_noxref_1_c_40_p N_noxref_11_c_1263_n ) capacitor c=0.037559f \
 //x=8.71 //y=0 //x2=8.1 //y2=0.53
cc_155 ( N_noxref_1_c_5_p N_noxref_11_c_1263_n ) capacitor c=0.00199432f \
 //x=10.47 //y=0 //x2=8.1 //y2=0.53
cc_156 ( N_noxref_1_c_6_p N_noxref_11_c_1266_n ) capacitor c=0.00282863f \
 //x=10.36 //y=0 //x2=8.185 //y2=0.615
cc_157 ( N_noxref_1_c_40_p N_noxref_11_c_1266_n ) capacitor c=0.0148003f \
 //x=8.71 //y=0 //x2=8.185 //y2=0.615
cc_158 ( N_noxref_1_c_158_p N_noxref_11_c_1266_n ) capacitor c=9.92084e-19 \
 //x=9.5 //y=0.45 //x2=8.185 //y2=0.615
cc_159 ( N_noxref_1_c_4_p N_noxref_11_c_1266_n ) capacitor c=0.0431718f \
 //x=8.88 //y=0 //x2=8.185 //y2=0.615
cc_160 ( N_noxref_1_c_5_p N_noxref_11_c_1266_n ) capacitor c=0.00145015f \
 //x=10.47 //y=0 //x2=8.185 //y2=0.615
cc_161 ( N_noxref_1_c_6_p N_noxref_11_M3_noxref_s ) capacitor c=0.00271584f \
 //x=10.36 //y=0 //x2=6.11 //y2=0.365
cc_162 ( N_noxref_1_c_39_p N_noxref_11_M3_noxref_s ) capacitor c=0.014783f \
 //x=6.645 //y=0 //x2=6.11 //y2=0.365
cc_163 ( N_noxref_1_c_3_p N_noxref_11_M3_noxref_s ) capacitor c=0.058339f \
 //x=5.55 //y=0 //x2=6.11 //y2=0.365
cc_164 ( N_noxref_1_c_4_p N_noxref_11_M3_noxref_s ) capacitor c=0.00200548f \
 //x=8.88 //y=0 //x2=6.11 //y2=0.365
cc_165 ( N_noxref_1_c_5_p N_noxref_11_M3_noxref_s ) capacitor c=0.00145873f \
 //x=10.47 //y=0 //x2=6.11 //y2=0.365
cc_166 ( N_noxref_1_M3_noxref_d N_noxref_11_M3_noxref_s ) capacitor \
 c=0.0334197f //x=6.54 //y=0.865 //x2=6.11 //y2=0.365
cc_167 ( N_noxref_1_M5_noxref_s N_noxref_11_M3_noxref_s ) capacitor \
 c=9.92084e-19 //x=9.375 //y=0.37 //x2=6.11 //y2=0.365
cc_168 ( N_noxref_2_c_173_p N_noxref_3_c_326_n ) capacitor c=0.0179155f \
 //x=10.36 //y=7.4 //x2=3.215 //y2=4.07
cc_169 ( N_noxref_2_c_174_p N_noxref_3_c_326_n ) capacitor c=9.77842e-19 \
 //x=1.47 //y=7.4 //x2=3.215 //y2=4.07
cc_170 ( N_noxref_2_c_175_p N_noxref_3_c_326_n ) capacitor c=0.00124367f \
 //x=2.05 //y=7.4 //x2=3.215 //y2=4.07
cc_171 ( N_noxref_2_c_176_p N_noxref_3_c_326_n ) capacitor c=0.00216965f \
 //x=3.365 //y=7.4 //x2=3.215 //y2=4.07
cc_172 ( N_noxref_2_c_169_n N_noxref_3_c_326_n ) capacitor c=0.0280406f \
 //x=2.22 //y=7.4 //x2=3.215 //y2=4.07
cc_173 ( N_noxref_2_M7_noxref_d N_noxref_3_c_326_n ) capacitor c=0.00213856f \
 //x=1.41 //y=5.02 //x2=3.215 //y2=4.07
cc_174 ( N_noxref_2_c_173_p N_noxref_3_c_328_n ) capacitor c=0.00188164f \
 //x=10.36 //y=7.4 //x2=0.855 //y2=4.07
cc_175 ( N_noxref_2_c_168_n N_noxref_3_c_328_n ) capacitor c=0.00208272f \
 //x=0.74 //y=7.4 //x2=0.855 //y2=4.07
cc_176 ( N_noxref_2_M6_noxref_s N_noxref_3_c_328_n ) capacitor c=0.00185024f \
 //x=0.54 //y=5.02 //x2=0.855 //y2=4.07
cc_177 ( N_noxref_2_c_173_p N_noxref_3_c_330_n ) capacitor c=0.00157744f \
 //x=10.36 //y=7.4 //x2=0.74 //y2=2.085
cc_178 ( N_noxref_2_c_168_n N_noxref_3_c_330_n ) capacitor c=0.0272385f \
 //x=0.74 //y=7.4 //x2=0.74 //y2=2.085
cc_179 ( N_noxref_2_c_169_n N_noxref_3_c_330_n ) capacitor c=0.00139956f \
 //x=2.22 //y=7.4 //x2=0.74 //y2=2.085
cc_180 ( N_noxref_2_M6_noxref_s N_noxref_3_c_330_n ) capacitor c=0.00896093f \
 //x=0.54 //y=5.02 //x2=0.74 //y2=2.085
cc_181 ( N_noxref_2_c_169_n N_noxref_3_c_335_n ) capacitor c=0.0160048f \
 //x=2.22 //y=7.4 //x2=3.33 //y2=2.08
cc_182 ( N_noxref_2_c_174_p N_noxref_3_M6_noxref_g ) capacitor c=0.00748034f \
 //x=1.47 //y=7.4 //x2=0.895 //y2=6.02
cc_183 ( N_noxref_2_c_168_n N_noxref_3_M6_noxref_g ) capacitor c=0.0241676f \
 //x=0.74 //y=7.4 //x2=0.895 //y2=6.02
cc_184 ( N_noxref_2_M6_noxref_s N_noxref_3_M6_noxref_g ) capacitor \
 c=0.0528676f //x=0.54 //y=5.02 //x2=0.895 //y2=6.02
cc_185 ( N_noxref_2_c_174_p N_noxref_3_M7_noxref_g ) capacitor c=0.00697478f \
 //x=1.47 //y=7.4 //x2=1.335 //y2=6.02
cc_186 ( N_noxref_2_M7_noxref_d N_noxref_3_M7_noxref_g ) capacitor \
 c=0.0528676f //x=1.41 //y=5.02 //x2=1.335 //y2=6.02
cc_187 ( N_noxref_2_c_176_p N_noxref_3_M8_noxref_g ) capacitor c=0.00673447f \
 //x=3.365 //y=7.4 //x2=3.23 //y2=6.02
cc_188 ( N_noxref_2_c_169_n N_noxref_3_M8_noxref_g ) capacitor c=0.00449901f \
 //x=2.22 //y=7.4 //x2=3.23 //y2=6.02
cc_189 ( N_noxref_2_M8_noxref_d N_noxref_3_M8_noxref_g ) capacitor \
 c=0.0166176f //x=3.305 //y=5.02 //x2=3.23 //y2=6.02
cc_190 ( N_noxref_2_c_195_p N_noxref_3_M9_noxref_g ) capacitor c=0.006727f \
 //x=5.38 //y=7.4 //x2=3.67 //y2=6.02
cc_191 ( N_noxref_2_M8_noxref_d N_noxref_3_M9_noxref_g ) capacitor \
 c=0.0186652f //x=3.305 //y=5.02 //x2=3.67 //y2=6.02
cc_192 ( N_noxref_2_c_169_n N_noxref_3_c_379_n ) capacitor c=0.0132667f \
 //x=2.22 //y=7.4 //x2=1.26 //y2=4.79
cc_193 ( N_noxref_2_c_168_n N_noxref_3_c_380_n ) capacitor c=0.011132f \
 //x=0.74 //y=7.4 //x2=0.97 //y2=4.79
cc_194 ( N_noxref_2_M6_noxref_s N_noxref_3_c_380_n ) capacitor c=0.00524527f \
 //x=0.54 //y=5.02 //x2=0.97 //y2=4.79
cc_195 ( N_noxref_2_c_169_n N_noxref_3_c_382_n ) capacitor c=0.0125867f \
 //x=2.22 //y=7.4 //x2=3.33 //y2=4.7
cc_196 ( N_noxref_2_c_169_n N_noxref_4_c_459_n ) capacitor c=0.00137387f \
 //x=2.22 //y=7.4 //x2=7.655 //y2=2.59
cc_197 ( N_noxref_2_c_173_p N_noxref_4_c_486_n ) capacitor c=0.0012271f \
 //x=10.36 //y=7.4 //x2=1.395 //y2=4.58
cc_198 ( N_noxref_2_c_174_p N_noxref_4_c_486_n ) capacitor c=9.08147e-19 \
 //x=1.47 //y=7.4 //x2=1.395 //y2=4.58
cc_199 ( N_noxref_2_M7_noxref_d N_noxref_4_c_486_n ) capacitor c=0.00609088f \
 //x=1.41 //y=5.02 //x2=1.395 //y2=4.58
cc_200 ( N_noxref_2_c_168_n N_noxref_4_c_489_n ) capacitor c=0.0179238f \
 //x=0.74 //y=7.4 //x2=1.2 //y2=4.58
cc_201 ( N_noxref_2_c_168_n N_noxref_4_c_474_n ) capacitor c=5.65246e-19 \
 //x=0.74 //y=7.4 //x2=1.48 //y2=2.59
cc_202 ( N_noxref_2_c_169_n N_noxref_4_c_474_n ) capacitor c=0.0220651f \
 //x=2.22 //y=7.4 //x2=1.48 //y2=2.59
cc_203 ( N_noxref_2_c_170_n N_noxref_4_c_477_n ) capacitor c=0.00210246f \
 //x=5.55 //y=7.4 //x2=7.77 //y2=2.08
cc_204 ( N_noxref_2_c_171_n N_noxref_4_c_477_n ) capacitor c=0.00147437f \
 //x=8.88 //y=7.4 //x2=7.77 //y2=2.08
cc_205 ( N_noxref_2_c_210_p N_noxref_4_M14_noxref_g ) capacitor c=0.00510247f \
 //x=8.71 //y=7.4 //x2=7.44 //y2=6.02
cc_206 ( N_noxref_2_c_210_p N_noxref_4_M15_noxref_g ) capacitor c=0.00510919f \
 //x=8.71 //y=7.4 //x2=7.88 //y2=6.02
cc_207 ( N_noxref_2_c_171_n N_noxref_4_M15_noxref_g ) capacitor c=0.00788519f \
 //x=8.88 //y=7.4 //x2=7.88 //y2=6.02
cc_208 ( N_noxref_2_c_173_p N_noxref_4_M6_noxref_d ) capacitor c=0.00285171f \
 //x=10.36 //y=7.4 //x2=0.97 //y2=5.02
cc_209 ( N_noxref_2_c_174_p N_noxref_4_M6_noxref_d ) capacitor c=0.0141332f \
 //x=1.47 //y=7.4 //x2=0.97 //y2=5.02
cc_210 ( N_noxref_2_c_169_n N_noxref_4_M6_noxref_d ) capacitor c=0.0204646f \
 //x=2.22 //y=7.4 //x2=0.97 //y2=5.02
cc_211 ( N_noxref_2_c_172_n N_noxref_4_M6_noxref_d ) capacitor c=0.00135976f \
 //x=10.36 //y=7.4 //x2=0.97 //y2=5.02
cc_212 ( N_noxref_2_M6_noxref_s N_noxref_4_M6_noxref_d ) capacitor \
 c=0.0843065f //x=0.54 //y=5.02 //x2=0.97 //y2=5.02
cc_213 ( N_noxref_2_M7_noxref_d N_noxref_4_M6_noxref_d ) capacitor \
 c=0.0832641f //x=1.41 //y=5.02 //x2=0.97 //y2=5.02
cc_214 ( N_noxref_2_c_173_p N_noxref_5_c_640_n ) capacitor c=0.00114116f \
 //x=10.36 //y=7.4 //x2=4.725 //y2=5.205
cc_215 ( N_noxref_2_c_195_p N_noxref_5_c_640_n ) capacitor c=0.0013904f \
 //x=5.38 //y=7.4 //x2=4.725 //y2=5.205
cc_216 ( N_noxref_2_c_169_n N_noxref_5_c_642_n ) capacitor c=8.9933e-19 \
 //x=2.22 //y=7.4 //x2=4.415 //y2=5.205
cc_217 ( N_noxref_2_c_169_n N_noxref_5_c_629_n ) capacitor c=0.00163766f \
 //x=2.22 //y=7.4 //x2=4.81 //y2=3.7
cc_218 ( N_noxref_2_c_170_n N_noxref_5_c_629_n ) capacitor c=0.0445615f \
 //x=5.55 //y=7.4 //x2=4.81 //y2=3.7
cc_219 ( N_noxref_2_c_173_p N_noxref_5_c_645_n ) capacitor c=0.00113725f \
 //x=10.36 //y=7.4 //x2=8.055 //y2=5.205
cc_220 ( N_noxref_2_c_210_p N_noxref_5_c_645_n ) capacitor c=0.00138981f \