// File: XNOR2X1.spi.pex
// Created: Tue Oct 15 15:53:54 2024
// Program "Calibre xRC"
// Version "v2023.2_27.15"
// Nominal Temperature: 30C
// Circuit Temperature: 30C
// 
simulator lang=spectre
subckt PM_XNOR2X1\%GND ( 1 21 33 37 40 45 51 57 63 71 79 82 87 91 103 114 117 \
 119 126 133 134 135 136 )
c167 ( 136 0 ) capacitor c=0.0584523f //x=9.375 //y=0.37
c168 ( 135 0 ) capacitor c=0.0207675f //x=6.54 //y=0.865
c169 ( 134 0 ) capacitor c=0.0207675f //x=3.21 //y=0.865
c170 ( 133 0 ) capacitor c=0.0582156f //x=0.495 //y=0.37
c171 ( 126 0 ) capacitor c=0.229234f //x=10.47 //y=0
c172 ( 119 0 ) capacitor c=0.103549f //x=8.88 //y=0
c173 ( 118 0 ) capacitor c=0.00440095f //x=6.73 //y=0
c174 ( 117 0 ) capacitor c=0.104526f //x=5.55 //y=0
c175 ( 116 0 ) capacitor c=0.00440095f //x=3.33 //y=0
c176 ( 114 0 ) capacitor c=0.102403f //x=2.22 //y=0
c177 ( 103 0 ) capacitor c=0.192508f //x=0.63 //y=0
c178 ( 94 0 ) capacitor c=0.00588377f //x=10.47 //y=0.45
c179 ( 91 0 ) capacitor c=0.00649591f //x=10.385 //y=0.535
c180 ( 90 0 ) capacitor c=0.00479856f //x=9.985 //y=0.45
c181 ( 87 0 ) capacitor c=0.00533039f //x=9.9 //y=0.535
c182 ( 82 0 ) capacitor c=0.00583665f //x=9.5 //y=0.45
c183 ( 79 0 ) capacitor c=0.0160123f //x=9.415 //y=0
c184 ( 71 0 ) capacitor c=0.0718584f //x=8.71 //y=0
c185 ( 63 0 ) capacitor c=0.0389039f //x=6.645 //y=0
c186 ( 57 0 ) capacitor c=0.0718422f //x=5.38 //y=0
c187 ( 51 0 ) capacitor c=0.0389039f //x=3.315 //y=0
c188 ( 46 0 ) capacitor c=0.0360673f //x=1.685 //y=0
c189 ( 45 0 ) capacitor c=0.0160123f //x=2.05 //y=0
c190 ( 40 0 ) capacitor c=0.00583665f //x=1.6 //y=0.45
c191 ( 37 0 ) capacitor c=0.00534353f //x=1.515 //y=0.535
c192 ( 36 0 ) capacitor c=0.00479856f //x=1.115 //y=0.45
c193 ( 33 0 ) capacitor c=0.00707849f //x=1.03 //y=0.535
c194 ( 28 0 ) capacitor c=0.00592191f //x=0.63 //y=0.45
c195 ( 21 0 ) capacitor c=0.388472f //x=10.36 //y=0
r196 (  125 126 ) resistor r=3.94398 //w=0.357 //l=0.11 //layer=li \
 //thickness=0.1 //x=10.36 //y=0 //x2=10.47 //y2=0
r197 (  123 125 ) resistor r=13.4454 //w=0.357 //l=0.375 //layer=li \
 //thickness=0.1 //x=9.985 //y=0 //x2=10.36 //y2=0
r198 (  122 123 ) resistor r=13.0868 //w=0.357 //l=0.365 //layer=li \
 //thickness=0.1 //x=9.62 //y=0 //x2=9.985 //y2=0
r199 (  120 122 ) resistor r=4.30252 //w=0.357 //l=0.12 //layer=li \
 //thickness=0.1 //x=9.5 //y=0 //x2=9.62 //y2=0
r200 (  106 107 ) resistor r=17.3894 //w=0.357 //l=0.485 //layer=li \
 //thickness=0.1 //x=1.115 //y=0 //x2=1.6 //y2=0
r201 (  105 106 ) resistor r=13.4454 //w=0.357 //l=0.375 //layer=li \
 //thickness=0.1 //x=0.74 //y=0 //x2=1.115 //y2=0
r202 (  103 105 ) resistor r=3.94398 //w=0.357 //l=0.11 //layer=li \
 //thickness=0.1 //x=0.63 //y=0 //x2=0.74 //y2=0
r203 (  95 136 ) resistor r=5.4201 //w=0.17 //l=0.085 //layer=li \
 //thickness=0.1 //x=10.47 //y=0.62 //x2=10.47 //y2=0.535
r204 (  95 136 ) resistor r=41.4118 //w=0.187 //l=0.605 //layer=li \
 //thickness=0.1 //x=10.47 //y=0.62 //x2=10.47 //y2=1.225
r205 (  94 136 ) resistor r=5.4201 //w=0.17 //l=0.085 //layer=li \
 //thickness=0.1 //x=10.47 //y=0.45 //x2=10.47 //y2=0.535
r206 (  93 126 ) resistor r=5.03728 //w=0.34 //l=0.17 //layer=li \
 //thickness=0.1 //x=10.47 //y=0.17 //x2=10.47 //y2=0
r207 (  93 94 ) resistor r=19.1658 //w=0.187 //l=0.28 //layer=li \
 //thickness=0.1 //x=10.47 //y=0.17 //x2=10.47 //y2=0.45
r208 (  92 136 ) resistor r=5.4201 //w=0.17 //l=0.085 //layer=li \
 //thickness=0.1 //x=10.07 //y=0.535 //x2=9.985 //y2=0.535
r209 (  91 136 ) resistor r=1.40859 //w=0.34 //l=0.085 //layer=li \
 //thickness=0.1 //x=10.385 //y=0.535 //x2=10.47 //y2=0.535
r210 (  91 92 ) resistor r=21.5615 //w=0.187 //l=0.315 //layer=li \
 //thickness=0.1 //x=10.385 //y=0.535 //x2=10.07 //y2=0.535
r211 (  90 136 ) resistor r=1.40859 //w=0.34 //l=0.085 //layer=li \
 //thickness=0.1 //x=9.985 //y=0.45 //x2=9.985 //y2=0.535
r212 (  89 123 ) resistor r=5.03728 //w=0.34 //l=0.17 //layer=li \
 //thickness=0.1 //x=9.985 //y=0.17 //x2=9.985 //y2=0
r213 (  89 90 ) resistor r=19.1658 //w=0.187 //l=0.28 //layer=li \
 //thickness=0.1 //x=9.985 //y=0.17 //x2=9.985 //y2=0.45
r214 (  88 136 ) resistor r=1.40859 //w=0.34 //l=0.085 //layer=li \
 //thickness=0.1 //x=9.585 //y=0.535 //x2=9.5 //y2=0.535
r215 (  87 136 ) resistor r=5.4201 //w=0.17 //l=0.085 //layer=li \
 //thickness=0.1 //x=9.9 //y=0.535 //x2=9.985 //y2=0.535
r216 (  87 88 ) resistor r=21.5615 //w=0.187 //l=0.315 //layer=li \
 //thickness=0.1 //x=9.9 //y=0.535 //x2=9.585 //y2=0.535
r217 (  83 136 ) resistor r=5.4201 //w=0.17 //l=0.085 //layer=li \
 //thickness=0.1 //x=9.5 //y=0.62 //x2=9.5 //y2=0.535
r218 (  83 136 ) resistor r=41.4118 //w=0.187 //l=0.605 //layer=li \
 //thickness=0.1 //x=9.5 //y=0.62 //x2=9.5 //y2=1.225
r219 (  82 136 ) resistor r=5.4201 //w=0.17 //l=0.085 //layer=li \
 //thickness=0.1 //x=9.5 //y=0.45 //x2=9.5 //y2=0.535
r220 (  81 120 ) resistor r=5.03728 //w=0.34 //l=0.17 //layer=li \
 //thickness=0.1 //x=9.5 //y=0.17 //x2=9.5 //y2=0
r221 (  81 82 ) resistor r=19.1658 //w=0.187 //l=0.28 //layer=li \
 //thickness=0.1 //x=9.5 //y=0.17 //x2=9.5 //y2=0.45
r222 (  80 119 ) resistor r=5.4201 //w=0.34 //l=0.17 //layer=li \
 //thickness=0.1 //x=9.05 //y=0 //x2=8.88 //y2=0
r223 (  79 120 ) resistor r=3.04762 //w=0.357 //l=0.085 //layer=li \
 //thickness=0.1 //x=9.415 //y=0 //x2=9.5 //y2=0
r224 (  79 80 ) resistor r=13.0868 //w=0.357 //l=0.365 //layer=li \
 //thickness=0.1 //x=9.415 //y=0 //x2=9.05 //y2=0
r225 (  74 76 ) resistor r=39.7983 //w=0.357 //l=1.11 //layer=li \
 //thickness=0.1 //x=7.03 //y=0 //x2=8.14 //y2=0
r226 (  72 118 ) resistor r=2.94794 //w=0.34 //l=0.085 //layer=li \
 //thickness=0.1 //x=6.815 //y=0 //x2=6.73 //y2=0
r227 (  72 74 ) resistor r=7.70868 //w=0.357 //l=0.215 //layer=li \
 //thickness=0.1 //x=6.815 //y=0 //x2=7.03 //y2=0
r228 (  71 119 ) resistor r=5.4201 //w=0.34 //l=0.17 //layer=li \
 //thickness=0.1 //x=8.71 //y=0 //x2=8.88 //y2=0
r229 (  71 76 ) resistor r=20.437 //w=0.357 //l=0.57 //layer=li \
 //thickness=0.1 //x=8.71 //y=0 //x2=8.14 //y2=0
r230 (  67 118 ) resistor r=4.11603 //w=0.68 //l=0.17 //layer=li \
 //thickness=0.1 //x=6.73 //y=0.17 //x2=6.73 //y2=0
r231 (  67 135 ) resistor r=53.7326 //w=0.187 //l=0.785 //layer=li \
 //thickness=0.1 //x=6.73 //y=0.17 //x2=6.73 //y2=0.955
r232 (  64 117 ) resistor r=5.4201 //w=0.34 //l=0.17 //layer=li \
 //thickness=0.1 //x=5.72 //y=0 //x2=5.55 //y2=0
r233 (  64 66 ) resistor r=7.17087 //w=0.357 //l=0.2 //layer=li \
 //thickness=0.1 //x=5.72 //y=0 //x2=5.92 //y2=0
r234 (  63 118 ) resistor r=2.94794 //w=0.34 //l=0.085 //layer=li \
 //thickness=0.1 //x=6.645 //y=0 //x2=6.73 //y2=0
r235 (  63 66 ) resistor r=25.9944 //w=0.357 //l=0.725 //layer=li \
 //thickness=0.1 //x=6.645 //y=0 //x2=5.92 //y2=0
r236 (  58 116 ) resistor r=2.94794 //w=0.34 //l=0.085 //layer=li \
 //thickness=0.1 //x=3.485 //y=0 //x2=3.4 //y2=0
r237 (  58 60 ) resistor r=34.2409 //w=0.357 //l=0.955 //layer=li \
 //thickness=0.1 //x=3.485 //y=0 //x2=4.44 //y2=0
r238 (  57 117 ) resistor r=5.4201 //w=0.34 //l=0.17 //layer=li \
 //thickness=0.1 //x=5.38 //y=0 //x2=5.55 //y2=0
r239 (  57 60 ) resistor r=33.7031 //w=0.357 //l=0.94 //layer=li \
 //thickness=0.1 //x=5.38 //y=0 //x2=4.44 //y2=0
r240 (  53 116 ) resistor r=4.11603 //w=0.68 //l=0.17 //layer=li \
 //thickness=0.1 //x=3.4 //y=0.17 //x2=3.4 //y2=0
r241 (  53 134 ) resistor r=53.7326 //w=0.187 //l=0.785 //layer=li \
 //thickness=0.1 //x=3.4 //y=0.17 //x2=3.4 //y2=0.955
r242 (  52 114 ) resistor r=5.4201 //w=0.34 //l=0.17 //layer=li \
 //thickness=0.1 //x=2.39 //y=0 //x2=2.22 //y2=0
r243 (  51 116 ) resistor r=2.94794 //w=0.34 //l=0.085 //layer=li \
 //thickness=0.1 //x=3.315 //y=0 //x2=3.4 //y2=0
r244 (  51 52 ) resistor r=33.1653 //w=0.357 //l=0.925 //layer=li \
 //thickness=0.1 //x=3.315 //y=0 //x2=2.39 //y2=0
r245 (  46 107 ) resistor r=3.04762 //w=0.357 //l=0.085 //layer=li \
 //thickness=0.1 //x=1.685 //y=0 //x2=1.6 //y2=0
r246 (  46 48 ) resistor r=5.91597 //w=0.357 //l=0.165 //layer=li \
 //thickness=0.1 //x=1.685 //y=0 //x2=1.85 //y2=0
r247 (  45 114 ) resistor r=5.4201 //w=0.34 //l=0.17 //layer=li \
 //thickness=0.1 //x=2.05 //y=0 //x2=2.22 //y2=0
r248 (  45 48 ) resistor r=7.17087 //w=0.357 //l=0.2 //layer=li \
 //thickness=0.1 //x=2.05 //y=0 //x2=1.85 //y2=0
r249 (  41 133 ) resistor r=5.4201 //w=0.17 //l=0.085 //layer=li \
 //thickness=0.1 //x=1.6 //y=0.62 //x2=1.6 //y2=0.535
r250 (  41 133 ) resistor r=41.4118 //w=0.187 //l=0.605 //layer=li \
 //thickness=0.1 //x=1.6 //y=0.62 //x2=1.6 //y2=1.225
r251 (  40 133 ) resistor r=5.4201 //w=0.17 //l=0.085 //layer=li \
 //thickness=0.1 //x=1.6 //y=0.45 //x2=1.6 //y2=0.535
r252 (  39 107 ) resistor r=5.03728 //w=0.34 //l=0.17 //layer=li \
 //thickness=0.1 //x=1.6 //y=0.17 //x2=1.6 //y2=0
r253 (  39 40 ) resistor r=19.1658 //w=0.187 //l=0.28 //layer=li \
 //thickness=0.1 //x=1.6 //y=0.17 //x2=1.6 //y2=0.45
r254 (  38 133 ) resistor r=5.4201 //w=0.17 //l=0.085 //layer=li \
 //thickness=0.1 //x=1.2 //y=0.535 //x2=1.115 //y2=0.535
r255 (  37 133 ) resistor r=1.40859 //w=0.34 //l=0.085 //layer=li \
 //thickness=0.1 //x=1.515 //y=0.535 //x2=1.6 //y2=0.535
r256 (  37 38 ) resistor r=21.5615 //w=0.187 //l=0.315 //layer=li \
 //thickness=0.1 //x=1.515 //y=0.535 //x2=1.2 //y2=0.535
r257 (  36 133 ) resistor r=1.40859 //w=0.34 //l=0.085 //layer=li \
 //thickness=0.1 //x=1.115 //y=0.45 //x2=1.115 //y2=0.535
r258 (  35 106 ) resistor r=5.03728 //w=0.34 //l=0.17 //layer=li \
 //thickness=0.1 //x=1.115 //y=0.17 //x2=1.115 //y2=0
r259 (  35 36 ) resistor r=19.1658 //w=0.187 //l=0.28 //layer=li \
 //thickness=0.1 //x=1.115 //y=0.17 //x2=1.115 //y2=0.45
r260 (  34 133 ) resistor r=1.40859 //w=0.34 //l=0.085 //layer=li \
 //thickness=0.1 //x=0.715 //y=0.535 //x2=0.63 //y2=0.535
r261 (  33 133 ) resistor r=5.4201 //w=0.17 //l=0.085 //layer=li \
 //thickness=0.1 //x=1.03 //y=0.535 //x2=1.115 //y2=0.535
r262 (  33 34 ) resistor r=21.5615 //w=0.187 //l=0.315 //layer=li \
 //thickness=0.1 //x=1.03 //y=0.535 //x2=0.715 //y2=0.535
r263 (  29 133 ) resistor r=5.4201 //w=0.17 //l=0.085 //layer=li \
 //thickness=0.1 //x=0.63 //y=0.62 //x2=0.63 //y2=0.535
r264 (  29 133 ) resistor r=41.4118 //w=0.187 //l=0.605 //layer=li \
 //thickness=0.1 //x=0.63 //y=0.62 //x2=0.63 //y2=1.225
r265 (  28 133 ) resistor r=5.4201 //w=0.17 //l=0.085 //layer=li \
 //thickness=0.1 //x=0.63 //y=0.45 //x2=0.63 //y2=0.535
r266 (  27 103 ) resistor r=5.03728 //w=0.34 //l=0.17 //layer=li \
 //thickness=0.1 //x=0.63 //y=0.17 //x2=0.63 //y2=0
r267 (  27 28 ) resistor r=19.1658 //w=0.187 //l=0.28 //layer=li \
 //thickness=0.1 //x=0.63 //y=0.17 //x2=0.63 //y2=0.45
r268 (  21 125 ) resistor r=4.65 //w=0.17 //l=0.34 //layer=mcon //count=2 \
 //x=10.36 //y=0 //x2=10.36 //y2=0
r269 (  19 122 ) resistor r=3.1 //w=0.17 //l=0.51 //layer=mcon //count=3 \
 //x=9.62 //y=0 //x2=9.62 //y2=0
r270 (  19 21 ) resistor r=0.307309 //w=0.301 //l=0.74 //layer=m1 \
 //thickness=0.36 //x=9.62 //y=0 //x2=10.36 //y2=0
r271 (  17 76 ) resistor r=3.1 //w=0.17 //l=0.51 //layer=mcon //count=3 \
 //x=8.14 //y=0 //x2=8.14 //y2=0
r272 (  17 19 ) resistor r=0.614618 //w=0.301 //l=1.48 //layer=m1 \
 //thickness=0.36 //x=8.14 //y=0 //x2=9.62 //y2=0
r273 (  15 74 ) resistor r=3.1 //w=0.17 //l=0.51 //layer=mcon //count=3 \
 //x=7.03 //y=0 //x2=7.03 //y2=0
r274 (  15 17 ) resistor r=0.460963 //w=0.301 //l=1.11 //layer=m1 \
 //thickness=0.36 //x=7.03 //y=0 //x2=8.14 //y2=0
r275 (  13 66 ) resistor r=3.1 //w=0.17 //l=0.51 //layer=mcon //count=3 \
 //x=5.92 //y=0 //x2=5.92 //y2=0
r276 (  13 15 ) resistor r=0.460963 //w=0.301 //l=1.11 //layer=m1 \
 //thickness=0.36 //x=5.92 //y=0 //x2=7.03 //y2=0
r277 (  10 60 ) resistor r=3.1 //w=0.17 //l=0.51 //layer=mcon //count=3 \
 //x=4.44 //y=0 //x2=4.44 //y2=0
r278 (  8 116 ) resistor r=3.1 //w=0.17 //l=0.51 //layer=mcon //count=3 \
 //x=3.33 //y=0 //x2=3.33 //y2=0
r279 (  8 10 ) resistor r=0.460963 //w=0.301 //l=1.11 //layer=m1 \
 //thickness=0.36 //x=3.33 //y=0 //x2=4.44 //y2=0
r280 (  6 48 ) resistor r=3.1 //w=0.17 //l=0.51 //layer=mcon //count=3 \
 //x=1.85 //y=0 //x2=1.85 //y2=0
r281 (  6 8 ) resistor r=0.614618 //w=0.301 //l=1.48 //layer=m1 \
 //thickness=0.36 //x=1.85 //y=0 //x2=3.33 //y2=0
r282 (  3 105 ) resistor r=3.1 //w=0.17 //l=0.51 //layer=mcon //count=3 \
 //x=0.74 //y=0 //x2=0.74 //y2=0
r283 (  3 6 ) resistor r=0.460963 //w=0.301 //l=1.11 //layer=m1 \
 //thickness=0.36 //x=0.74 //y=0 //x2=1.85 //y2=0
r284 (  1 13 ) resistor r=0.153654 //w=0.301 //l=0.37 //layer=m1 \
 //thickness=0.36 //x=5.55 //y=0 //x2=5.92 //y2=0
r285 (  1 10 ) resistor r=0.460963 //w=0.301 //l=1.11 //layer=m1 \
 //thickness=0.36 //x=5.55 //y=0 //x2=4.44 //y2=0
ends PM_XNOR2X1\%GND

subckt PM_XNOR2X1\%VDD ( 1 21 33 41 47 55 61 69 77 85 98 100 102 104 108 109 \
 110 111 112 113 114 )
c158 ( 114 0 ) capacitor c=0.0421443f //x=10.28 //y=5.02
c159 ( 113 0 ) capacitor c=0.0432439f //x=9.42 //y=5.02
c160 ( 112 0 ) capacitor c=0.0266033f //x=6.635 //y=5.02
c161 ( 111 0 ) capacitor c=0.0265296f //x=3.305 //y=5.02
c162 ( 110 0 ) capacitor c=0.0432963f //x=1.41 //y=5.02
c163 ( 109 0 ) capacitor c=0.0421443f //x=0.54 //y=5.02
c164 ( 108 0 ) capacitor c=0.232857f //x=10.36 //y=7.4
c165 ( 106 0 ) capacitor c=0.00591168f //x=9.62 //y=7.4
c166 ( 104 0 ) capacitor c=0.105645f //x=8.88 //y=7.4
c167 ( 103 0 ) capacitor c=0.00591168f //x=6.78 //y=7.4
c168 ( 102 0 ) capacitor c=0.111763f //x=5.55 //y=7.4
c169 ( 101 0 ) capacitor c=0.00591168f //x=3.45 //y=7.4
c170 ( 100 0 ) capacitor c=0.111559f //x=2.22 //y=7.4
c171 ( 99 0 ) capacitor c=0.00591168f //x=1.555 //y=7.4
c172 ( 98 0 ) capacitor c=0.232987f //x=0.74 //y=7.4
c173 ( 85 0 ) capacitor c=0.0289601f //x=10.34 //y=7.4
c174 ( 77 0 ) capacitor c=0.0181526f //x=9.46 //y=7.4
c175 ( 69 0 ) capacitor c=0.0747638f //x=8.71 //y=7.4
c176 ( 61 0 ) capacitor c=0.042882f //x=6.695 //y=7.4
c177 ( 55 0 ) capacitor c=0.074629f //x=5.38 //y=7.4
c178 ( 47 0 ) capacitor c=0.042884f //x=3.365 //y=7.4
c179 ( 41 0 ) capacitor c=0.0181526f //x=2.05 //y=7.4
c180 ( 33 0 ) capacitor c=0.0291066f //x=1.47 //y=7.4
c181 ( 21 0 ) capacitor c=0.400496f //x=10.36 //y=7.4
r182 (  87 108 ) resistor r=4.11603 //w=0.68 //l=0.17 //layer=li \
 //thickness=0.1 //x=10.425 //y=7.23 //x2=10.425 //y2=7.4
r183 (  87 114 ) resistor r=56.4706 //w=0.187 //l=0.825 //layer=li \
 //thickness=0.1 //x=10.425 //y=7.23 //x2=10.425 //y2=6.405
r184 (  86 106 ) resistor r=2.94794 //w=0.34 //l=0.085 //layer=li \
 //thickness=0.1 //x=9.63 //y=7.4 //x2=9.545 //y2=7.4
r185 (  85 108 ) resistor r=2.94794 //w=0.34 //l=0.085 //layer=li \
 //thickness=0.1 //x=10.34 //y=7.4 //x2=10.425 //y2=7.4
r186 (  85 86 ) resistor r=25.4566 //w=0.357 //l=0.71 //layer=li \
 //thickness=0.1 //x=10.34 //y=7.4 //x2=9.63 //y2=7.4
r187 (  79 106 ) resistor r=4.11603 //w=0.68 //l=0.17 //layer=li \
 //thickness=0.1 //x=9.545 //y=7.23 //x2=9.545 //y2=7.4
r188 (  79 113 ) resistor r=56.4706 //w=0.187 //l=0.825 //layer=li \
 //thickness=0.1 //x=9.545 //y=7.23 //x2=9.545 //y2=6.405
r189 (  78 104 ) resistor r=5.4201 //w=0.34 //l=0.17 //layer=li \
 //thickness=0.1 //x=9.05 //y=7.4 //x2=8.88 //y2=7.4
r190 (  77 106 ) resistor r=2.94794 //w=0.34 //l=0.085 //layer=li \
 //thickness=0.1 //x=9.46 //y=7.4 //x2=9.545 //y2=7.4
r191 (  77 78 ) resistor r=14.7003 //w=0.357 //l=0.41 //layer=li \
 //thickness=0.1 //x=9.46 //y=7.4 //x2=9.05 //y2=7.4
r192 (  72 74 ) resistor r=39.7983 //w=0.357 //l=1.11 //layer=li \
 //thickness=0.1 //x=7.03 //y=7.4 //x2=8.14 //y2=7.4
r193 (  70 103 ) resistor r=2.94794 //w=0.34 //l=0.085 //layer=li \
 //thickness=0.1 //x=6.865 //y=7.4 //x2=6.78 //y2=7.4
r194 (  70 72 ) resistor r=5.91597 //w=0.357 //l=0.165 //layer=li \
 //thickness=0.1 //x=6.865 //y=7.4 //x2=7.03 //y2=7.4
r195 (  69 104 ) resistor r=5.4201 //w=0.34 //l=0.17 //layer=li \
 //thickness=0.1 //x=8.71 //y=7.4 //x2=8.88 //y2=7.4
r196 (  69 74 ) resistor r=20.437 //w=0.357 //l=0.57 //layer=li \
 //thickness=0.1 //x=8.71 //y=7.4 //x2=8.14 //y2=7.4
r197 (  65 103 ) resistor r=4.11603 //w=0.68 //l=0.17 //layer=li \
 //thickness=0.1 //x=6.78 //y=7.23 //x2=6.78 //y2=7.4
r198 (  65 112 ) resistor r=80.4278 //w=0.187 //l=1.175 //layer=li \
 //thickness=0.1 //x=6.78 //y=7.23 //x2=6.78 //y2=6.055
r199 (  62 102 ) resistor r=5.4201 //w=0.34 //l=0.17 //layer=li \
 //thickness=0.1 //x=5.72 //y=7.4 //x2=5.55 //y2=7.4
r200 (  62 64 ) resistor r=7.17087 //w=0.357 //l=0.2 //layer=li \
 //thickness=0.1 //x=5.72 //y=7.4 //x2=5.92 //y2=7.4
r201 (  61 103 ) resistor r=2.94794 //w=0.34 //l=0.085 //layer=li \
 //thickness=0.1 //x=6.695 //y=7.4 //x2=6.78 //y2=7.4
r202 (  61 64 ) resistor r=27.7871 //w=0.357 //l=0.775 //layer=li \
 //thickness=0.1 //x=6.695 //y=7.4 //x2=5.92 //y2=7.4
r203 (  56 101 ) resistor r=2.94794 //w=0.34 //l=0.085 //layer=li \
 //thickness=0.1 //x=3.535 //y=7.4 //x2=3.45 //y2=7.4
r204 (  56 58 ) resistor r=32.4482 //w=0.357 //l=0.905 //layer=li \
 //thickness=0.1 //x=3.535 //y=7.4 //x2=4.44 //y2=7.4
r205 (  55 102 ) resistor r=5.4201 //w=0.34 //l=0.17 //layer=li \
 //thickness=0.1 //x=5.38 //y=7.4 //x2=5.55 //y2=7.4
r206 (  55 58 ) resistor r=33.7031 //w=0.357 //l=0.94 //layer=li \
 //thickness=0.1 //x=5.38 //y=7.4 //x2=4.44 //y2=7.4
r207 (  51 101 ) resistor r=4.11603 //w=0.68 //l=0.17 //layer=li \
 //thickness=0.1 //x=3.45 //y=7.23 //x2=3.45 //y2=7.4
r208 (  51 111 ) resistor r=80.4278 //w=0.187 //l=1.175 //layer=li \
 //thickness=0.1 //x=3.45 //y=7.23 //x2=3.45 //y2=6.055
r209 (  48 100 ) resistor r=5.4201 //w=0.34 //l=0.17 //layer=li \
 //thickness=0.1 //x=2.39 //y=7.4 //x2=2.22 //y2=7.4
r210 (  48 50 ) resistor r=33.7031 //w=0.357 //l=0.94 //layer=li \
 //thickness=0.1 //x=2.39 //y=7.4 //x2=3.33 //y2=7.4
r211 (  47 101 ) resistor r=2.94794 //w=0.34 //l=0.085 //layer=li \
 //thickness=0.1 //x=3.365 //y=7.4 //x2=3.45 //y2=7.4
r212 (  47 50 ) resistor r=1.2549 //w=0.357 //l=0.035 //layer=li \
 //thickness=0.1 //x=3.365 //y=7.4 //x2=3.33 //y2=7.4
r213 (  42 99 ) resistor r=2.94794 //w=0.34 //l=0.085 //layer=li \
 //thickness=0.1 //x=1.64 //y=7.4 //x2=1.555 //y2=7.4
r214 (  42 44 ) resistor r=7.52941 //w=0.357 //l=0.21 //layer=li \
 //thickness=0.1 //x=1.64 //y=7.4 //x2=1.85 //y2=7.4
r215 (  41 100 ) resistor r=5.4201 //w=0.34 //l=0.17 //layer=li \
 //thickness=0.1 //x=2.05 //y=7.4 //x2=2.22 //y2=7.4
r216 (  41 44 ) resistor r=7.17087 //w=0.357 //l=0.2 //layer=li \
 //thickness=0.1 //x=2.05 //y=7.4 //x2=1.85 //y2=7.4
r217 (  35 99 ) resistor r=4.11603 //w=0.68 //l=0.17 //layer=li \
 //thickness=0.1 //x=1.555 //y=7.23 //x2=1.555 //y2=7.4
r218 (  35 110 ) resistor r=56.4706 //w=0.187 //l=0.825 //layer=li \
 //thickness=0.1 //x=1.555 //y=7.23 //x2=1.555 //y2=6.405
r219 (  34 98 ) resistor r=2.94794 //w=0.34 //l=0.085 //layer=li \
 //thickness=0.1 //x=0.76 //y=7.4 //x2=0.675 //y2=7.4
r220 (  33 99 ) resistor r=2.94794 //w=0.34 //l=0.085 //layer=li \
 //thickness=0.1 //x=1.47 //y=7.4 //x2=1.555 //y2=7.4
r221 (  33 34 ) resistor r=25.4566 //w=0.357 //l=0.71 //layer=li \
 //thickness=0.1 //x=1.47 //y=7.4 //x2=0.76 //y2=7.4
r222 (  27 98 ) resistor r=4.11603 //w=0.68 //l=0.17 //layer=li \
 //thickness=0.1 //x=0.675 //y=7.23 //x2=0.675 //y2=7.4
r223 (  27 109 ) resistor r=56.4706 //w=0.187 //l=0.825 //layer=li \
 //thickness=0.1 //x=0.675 //y=7.23 //x2=0.675 //y2=6.405
r224 (  21 108 ) resistor r=4.65 //w=0.17 //l=0.34 //layer=mcon //count=2 \
 //x=10.36 //y=7.4 //x2=10.36 //y2=7.4
r225 (  19 106 ) resistor r=3.1 //w=0.17 //l=0.51 //layer=mcon //count=3 \
 //x=9.62 //y=7.4 //x2=9.62 //y2=7.4
r226 (  19 21 ) resistor r=0.307309 //w=0.301 //l=0.74 //layer=m1 \
 //thickness=0.36 //x=9.62 //y=7.4 //x2=10.36 //y2=7.4
r227 (  17 74 ) resistor r=3.1 //w=0.17 //l=0.51 //layer=mcon //count=3 \
 //x=8.14 //y=7.4 //x2=8.14 //y2=7.4
r228 (  17 19 ) resistor r=0.614618 //w=0.301 //l=1.48 //layer=m1 \
 //thickness=0.36 //x=8.14 //y=7.4 //x2=9.62 //y2=7.4
r229 (  15 72 ) resistor r=3.1 //w=0.17 //l=0.51 //layer=mcon //count=3 \
 //x=7.03 //y=7.4 //x2=7.03 //y2=7.4
r230 (  15 17 ) resistor r=0.460963 //w=0.301 //l=1.11 //layer=m1 \
 //thickness=0.36 //x=7.03 //y=7.4 //x2=8.14 //y2=7.4
r231 (  13 64 ) resistor r=3.1 //w=0.17 //l=0.51 //layer=mcon //count=3 \
 //x=5.92 //y=7.4 //x2=5.92 //y2=7.4
r232 (  13 15 ) resistor r=0.460963 //w=0.301 //l=1.11 //layer=m1 \
 //thickness=0.36 //x=5.92 //y=7.4 //x2=7.03 //y2=7.4
r233 (  10 58 ) resistor r=3.1 //w=0.17 //l=0.51 //layer=mcon //count=3 \
 //x=4.44 //y=7.4 //x2=4.44 //y2=7.4
r234 (  8 50 ) resistor r=3.1 //w=0.17 //l=0.51 //layer=mcon //count=3 \
 //x=3.33 //y=7.4 //x2=3.33 //y2=7.4
r235 (  8 10 ) resistor r=0.460963 //w=0.301 //l=1.11 //layer=m1 \
 //thickness=0.36 //x=3.33 //y=7.4 //x2=4.44 //y2=7.4
r236 (  6 44 ) resistor r=3.1 //w=0.17 //l=0.51 //layer=mcon //count=3 \
 //x=1.85 //y=7.4 //x2=1.85 //y2=7.4
r237 (  6 8 ) resistor r=0.614618 //w=0.301 //l=1.48 //layer=m1 \
 //thickness=0.36 //x=1.85 //y=7.4 //x2=3.33 //y2=7.4
r238 (  3 98 ) resistor r=3.1 //w=0.17 //l=0.51 //layer=mcon //count=3 \
 //x=0.74 //y=7.4 //x2=0.74 //y2=7.4
r239 (  3 6 ) resistor r=0.460963 //w=0.301 //l=1.11 //layer=m1 \
 //thickness=0.36 //x=0.74 //y=7.4 //x2=1.85 //y2=7.4
r240 (  1 13 ) resistor r=0.153654 //w=0.301 //l=0.37 //layer=m1 \
 //thickness=0.36 //x=5.55 //y=7.4 //x2=5.92 //y2=7.4
r241 (  1 10 ) resistor r=0.460963 //w=0.301 //l=1.11 //layer=m1 \
 //thickness=0.36 //x=5.55 //y=7.4 //x2=4.44 //y2=7.4
ends PM_XNOR2X1\%VDD

subckt PM_XNOR2X1\%A ( 1 2 7 8 9 10 11 12 13 14 15 16 17 18 20 33 45 46 47 48 \
 49 50 51 52 53 54 58 59 60 62 68 69 70 71 72 73 77 79 82 83 88 102 )
c133 ( 102 0 ) capacitor c=0.0661295f //x=3.33 //y=4.7
c134 ( 88 0 ) capacitor c=0.0537799f //x=0.74 //y=2.085
c135 ( 83 0 ) capacitor c=0.0318948f //x=3.665 //y=1.21
c136 ( 82 0 ) capacitor c=0.0187384f //x=3.665 //y=0.865
c137 ( 79 0 ) capacitor c=0.0141798f //x=3.51 //y=1.365
c138 ( 77 0 ) capacitor c=0.0149844f //x=3.51 //y=0.71
c139 ( 73 0 ) capacitor c=0.0836842f //x=3.135 //y=1.915
c140 ( 72 0 ) capacitor c=0.0229722f //x=3.135 //y=1.52
c141 ( 71 0 ) capacitor c=0.0234352f //x=3.135 //y=1.21
c142 ( 70 0 ) capacitor c=0.0199343f //x=3.135 //y=0.865
c143 ( 69 0 ) capacitor c=0.0435629f //x=1.38 //y=1.255
c144 ( 68 0 ) capacitor c=0.0200386f //x=1.38 //y=0.91
c145 ( 62 0 ) capacitor c=0.0152946f //x=1.225 //y=1.41
c146 ( 60 0 ) capacitor c=0.0157804f //x=1.225 //y=0.755
c147 ( 59 0 ) capacitor c=0.048995f //x=0.97 //y=4.79
c148 ( 58 0 ) capacitor c=0.0303096f //x=1.26 //y=4.79
c149 ( 54 0 ) capacitor c=0.0290017f //x=0.85 //y=1.92
c150 ( 53 0 ) capacitor c=0.0250027f //x=0.85 //y=1.565
c151 ( 52 0 ) capacitor c=0.0234316f //x=0.85 //y=1.255
c152 ( 51 0 ) capacitor c=0.0200596f //x=0.85 //y=0.91
c153 ( 50 0 ) capacitor c=0.110797f //x=3.67 //y=6.02
c154 ( 49 0 ) capacitor c=0.154322f //x=3.23 //y=6.02
c155 ( 48 0 ) capacitor c=0.154218f //x=1.335 //y=6.02
c156 ( 47 0 ) capacitor c=0.154243f //x=0.895 //y=6.02
c157 ( 33 0 ) capacitor c=0.109824f //x=3.33 //y=2.08
c158 ( 20 0 ) capacitor c=0.11095f //x=0.74 //y=2.085
c159 ( 2 0 ) capacitor c=0.0144527f //x=0.855 //y=4.07
c160 ( 1 0 ) capacitor c=0.0971907f //x=3.215 //y=4.07
r161 (  100 102 ) resistor r=20.6867 //w=0.233 //l=0.1 //layer=ply \
 //thickness=0.18 //x=3.23 //y=4.7 //x2=3.33 //y2=4.7
r162 (  88 89 ) resistor r=17.5563 //w=0.302 //l=0.11 //layer=ply \
 //thickness=0.18 //x=0.74 //y=2.085 //x2=0.85 //y2=2.085
r163 (  84 102 ) resistor r=70.3348 //w=0.233 //l=0.414367 //layer=ply \
 //thickness=0.18 //x=3.67 //y=4.865 //x2=3.33 //y2=4.7
r164 (  83 104 ) resistor r=45.1352 //w=0.168 //l=0.173853 //layer=ply \
 //thickness=0.18 //x=3.665 //y=1.21 //x2=3.625 //y2=1.365
r165 (  82 103 ) resistor r=45.1352 //w=0.168 //l=0.173853 //layer=ply \
 //thickness=0.18 //x=3.665 //y=0.865 //x2=3.625 //y2=0.71
r166 (  82 83 ) resistor r=176.904 //w=0.094 //l=0.345 //layer=ply \
 //thickness=0.18 //x=3.665 //y=0.865 //x2=3.665 //y2=1.21
r167 (  80 99 ) resistor r=10.701 //w=0.21 //l=0.115 //layer=ply \
 //thickness=0.18 //x=3.29 //y=1.365 //x2=3.175 //y2=1.365
r168 (  79 104 ) resistor r=5.52526 //w=0.168 //l=0.115 //layer=ply \
 //thickness=0.18 //x=3.51 //y=1.365 //x2=3.625 //y2=1.365
r169 (  78 98 ) resistor r=5.52526 //w=0.168 //l=0.115 //layer=ply \
 //thickness=0.18 //x=3.29 //y=0.71 //x2=3.175 //y2=0.71
r170 (  77 103 ) resistor r=5.52526 //w=0.168 //l=0.115 //layer=ply \
 //thickness=0.18 //x=3.51 //y=0.71 //x2=3.625 //y2=0.71
r171 (  77 78 ) resistor r=112.809 //w=0.094 //l=0.22 //layer=ply \
 //thickness=0.18 //x=3.51 //y=0.71 //x2=3.29 //y2=0.71
r172 (  74 100 ) resistor r=13.0941 //w=0.233 //l=0.165 //layer=ply \
 //thickness=0.18 //x=3.23 //y=4.865 //x2=3.23 //y2=4.7
r173 (  73 97 ) resistor r=34.8111 //w=0.27 //l=0.264953 //layer=ply \
 //thickness=0.18 //x=3.135 //y=1.915 //x2=3.33 //y2=2.08
r174 (  72 99 ) resistor r=39.5823 //w=0.21 //l=0.173853 //layer=ply \
 //thickness=0.18 //x=3.135 //y=1.52 //x2=3.175 //y2=1.365
r175 (  72 73 ) resistor r=202.543 //w=0.094 //l=0.395 //layer=ply \
 //thickness=0.18 //x=3.135 //y=1.52 //x2=3.135 //y2=1.915
r176 (  71 99 ) resistor r=39.5823 //w=0.21 //l=0.173853 //layer=ply \
 //thickness=0.18 //x=3.135 //y=1.21 //x2=3.175 //y2=1.365
r177 (  70 98 ) resistor r=45.1352 //w=0.168 //l=0.173853 //layer=ply \
 //thickness=0.18 //x=3.135 //y=0.865 //x2=3.175 //y2=0.71
r178 (  70 71 ) resistor r=176.904 //w=0.094 //l=0.345 //layer=ply \
 //thickness=0.18 //x=3.135 //y=0.865 //x2=3.135 //y2=1.21
r179 (  69 95 ) resistor r=45.1352 //w=0.168 //l=0.173853 //layer=ply \
 //thickness=0.18 //x=1.38 //y=1.255 //x2=1.34 //y2=1.41
r180 (  68 94 ) resistor r=45.1352 //w=0.168 //l=0.173853 //layer=ply \
 //thickness=0.18 //x=1.38 //y=0.91 //x2=1.34 //y2=0.755
r181 (  68 69 ) resistor r=176.904 //w=0.094 //l=0.345 //layer=ply \
 //thickness=0.18 //x=1.38 //y=0.91 //x2=1.38 //y2=1.255
r182 (  63 93 ) resistor r=10.701 //w=0.21 //l=0.115 //layer=ply \
 //thickness=0.18 //x=1.005 //y=1.41 //x2=0.89 //y2=1.41
r183 (  62 95 ) resistor r=5.52526 //w=0.168 //l=0.115 //layer=ply \
 //thickness=0.18 //x=1.225 //y=1.41 //x2=1.34 //y2=1.41
r184 (  61 92 ) resistor r=5.52526 //w=0.168 //l=0.115 //layer=ply \
 //thickness=0.18 //x=1.005 //y=0.755 //x2=0.89 //y2=0.755
r185 (  60 94 ) resistor r=5.52526 //w=0.168 //l=0.115 //layer=ply \
 //thickness=0.18 //x=1.225 //y=0.755 //x2=1.34 //y2=0.755
r186 (  60 61 ) resistor r=112.809 //w=0.094 //l=0.22 //layer=ply \
 //thickness=0.18 //x=1.225 //y=0.755 //x2=1.005 //y2=0.755
r187 (  58 65 ) resistor r=26.9307 //w=0.15 //l=0.106066 //layer=ply \
 //thickness=0.18 //x=1.26 //y=4.79 //x2=1.335 //y2=4.865
r188 (  58 59 ) resistor r=148.702 //w=0.094 //l=0.29 //layer=ply \
 //thickness=0.18 //x=1.26 //y=4.79 //x2=0.97 //y2=4.79
r189 (  55 59 ) resistor r=23.403 //w=0.284 //l=0.106066 //layer=ply \
 //thickness=0.18 //x=0.895 //y=4.865 //x2=0.97 //y2=4.79
r190 (  55 91 ) resistor r=26.3063 //w=0.284 //l=0.229783 //layer=ply \
 //thickness=0.18 //x=0.895 //y=4.865 //x2=0.74 //y2=4.7
r191 (  54 89 ) resistor r=19.1248 //w=0.302 //l=0.165 //layer=ply \
 //thickness=0.18 //x=0.85 //y=1.92 //x2=0.85 //y2=2.085
r192 (  53 93 ) resistor r=39.5823 //w=0.21 //l=0.173853 //layer=ply \
 //thickness=0.18 //x=0.85 //y=1.565 //x2=0.89 //y2=1.41
r193 (  53 54 ) resistor r=182.032 //w=0.094 //l=0.355 //layer=ply \
 //thickness=0.18 //x=0.85 //y=1.565 //x2=0.85 //y2=1.92
r194 (  52 93 ) resistor r=39.5823 //w=0.21 //l=0.173853 //layer=ply \
 //thickness=0.18 //x=0.85 //y=1.255 //x2=0.89 //y2=1.41
r195 (  51 92 ) resistor r=45.1352 //w=0.168 //l=0.173853 //layer=ply \
 //thickness=0.18 //x=0.85 //y=0.91 //x2=0.89 //y2=0.755
r196 (  51 52 ) resistor r=176.904 //w=0.094 //l=0.345 //layer=ply \
 //thickness=0.18 //x=0.85 //y=0.91 //x2=0.85 //y2=1.255
r197 (  50 84 ) resistor r=592.245 //w=0.094 //l=1.155 //layer=ply \
 //thickness=0.18 //x=3.67 //y=6.02 //x2=3.67 //y2=4.865
r198 (  49 74 ) resistor r=592.245 //w=0.094 //l=1.155 //layer=ply \
 //thickness=0.18 //x=3.23 //y=6.02 //x2=3.23 //y2=4.865
r199 (  48 65 ) resistor r=592.245 //w=0.094 //l=1.155 //layer=ply \
 //thickness=0.18 //x=1.335 //y=6.02 //x2=1.335 //y2=4.865
r200 (  47 55 ) resistor r=592.245 //w=0.094 //l=1.155 //layer=ply \
 //thickness=0.18 //x=0.895 //y=6.02 //x2=0.895 //y2=4.865
r201 (  46 79 ) resistor r=56.4043 //w=0.094 //l=0.11 //layer=ply \
 //thickness=0.18 //x=3.4 //y=1.365 //x2=3.51 //y2=1.365
r202 (  46 80 ) resistor r=56.4043 //w=0.094 //l=0.11 //layer=ply \
 //thickness=0.18 //x=3.4 //y=1.365 //x2=3.29 //y2=1.365
r203 (  45 62 ) resistor r=56.4043 //w=0.094 //l=0.11 //layer=ply \
 //thickness=0.18 //x=1.115 //y=1.41 //x2=1.225 //y2=1.41
r204 (  45 63 ) resistor r=56.4043 //w=0.094 //l=0.11 //layer=ply \
 //thickness=0.18 //x=1.115 //y=1.41 //x2=1.005 //y2=1.41
r205 (  43 102 ) resistor r=152 //w=0.17 //l=0.17 //layer=licon //count=1 \
 //x=3.33 //y=4.7 //x2=3.33 //y2=4.7
r206 (  33 97 ) resistor r=152 //w=0.17 //l=0.17 //layer=licon //count=1 \
 //x=3.33 //y=2.08 //x2=3.33 //y2=2.08
r207 (  30 91 ) resistor r=152 //w=0.17 //l=0.17 //layer=licon //count=1 \
 //x=0.74 //y=4.7 //x2=0.74 //y2=4.7
r208 (  20 88 ) resistor r=152 //w=0.17 //l=0.17 //layer=licon //count=1 \
 //x=0.74 //y=2.085 //x2=0.74 //y2=2.085
r209 (  18 43 ) resistor r=17.7968 //w=0.187 //l=0.26 //layer=li \
 //thickness=0.1 //x=3.33 //y=4.44 //x2=3.33 //y2=4.7
r210 (  17 18 ) resistor r=25.3262 //w=0.187 //l=0.37 //layer=li \
 //thickness=0.1 //x=3.33 //y=4.07 //x2=3.33 //y2=4.44
r211 (  16 17 ) resistor r=25.3262 //w=0.187 //l=0.37 //layer=li \
 //thickness=0.1 //x=3.33 //y=3.7 //x2=3.33 //y2=4.07
r212 (  15 16 ) resistor r=25.3262 //w=0.187 //l=0.37 //layer=li \
 //thickness=0.1 //x=3.33 //y=3.33 //x2=3.33 //y2=3.7
r213 (  14 15 ) resistor r=25.3262 //w=0.187 //l=0.37 //layer=li \
 //thickness=0.1 //x=3.33 //y=2.96 //x2=3.33 //y2=3.33
r214 (  13 14 ) resistor r=25.3262 //w=0.187 //l=0.37 //layer=li \
 //thickness=0.1 //x=3.33 //y=2.59 //x2=3.33 //y2=2.96
r215 (  13 33 ) resistor r=34.9091 //w=0.187 //l=0.51 //layer=li \
 //thickness=0.1 //x=3.33 //y=2.59 //x2=3.33 //y2=2.08
r216 (  12 30 ) resistor r=17.7968 //w=0.187 //l=0.26 //layer=li \