// File: xor2X1_pcell.spi.XOR2X1_PCELL.pxi
// Created: Tue Oct 15 16:01:28 2024
// 
simulator lang=spectre
x_PM_XOR2X1_PCELL\%noxref_1 ( N_noxref_1_c_6_p N_noxref_1_c_11_p \
 N_noxref_1_c_20_p N_noxref_1_c_136_p N_noxref_1_c_36_p N_noxref_1_c_23_p \
 N_noxref_1_c_29_p N_noxref_1_c_39_p N_noxref_1_c_40_p N_noxref_1_c_96_p \
 N_noxref_1_c_156_p N_noxref_1_c_77_p N_noxref_1_c_104_p N_noxref_1_c_1_p \
 N_noxref_1_c_2_p N_noxref_1_c_3_p N_noxref_1_c_4_p N_noxref_1_c_5_p \
 N_noxref_1_M0_noxref_s N_noxref_1_M1_noxref_d N_noxref_1_M3_noxref_d \
 N_noxref_1_M5_noxref_s )  PM_XOR2X1_PCELL\%noxref_1
x_PM_XOR2X1_PCELL\%noxref_2 ( N_noxref_2_c_171_p N_noxref_2_c_172_p \
 N_noxref_2_c_173_p N_noxref_2_c_174_p N_noxref_2_c_193_p N_noxref_2_c_234_p \
 N_noxref_2_c_208_p N_noxref_2_c_257_p N_noxref_2_c_244_p N_noxref_2_c_166_n \
 N_noxref_2_c_167_n N_noxref_2_c_168_n N_noxref_2_c_169_n N_noxref_2_c_170_n \
 N_noxref_2_M6_noxref_s N_noxref_2_M7_noxref_d N_noxref_2_M8_noxref_d \
 N_noxref_2_M12_noxref_d N_noxref_2_M16_noxref_s N_noxref_2_M17_noxref_d )  \
 PM_XOR2X1_PCELL\%noxref_2
x_PM_XOR2X1_PCELL\%noxref_3 ( N_noxref_3_c_322_n N_noxref_3_c_324_n \
 N_noxref_3_c_326_n N_noxref_3_c_331_n N_noxref_3_M0_noxref_g \
 N_noxref_3_M1_noxref_g N_noxref_3_M6_noxref_g N_noxref_3_M7_noxref_g \
 N_noxref_3_M8_noxref_g N_noxref_3_M9_noxref_g N_noxref_3_c_332_n \
 N_noxref_3_c_398_p N_noxref_3_c_399_p N_noxref_3_c_334_n N_noxref_3_c_375_n \
 N_noxref_3_c_376_n N_noxref_3_c_335_n N_noxref_3_c_385_p N_noxref_3_c_336_n \
 N_noxref_3_c_338_n N_noxref_3_c_339_n N_noxref_3_c_341_n N_noxref_3_c_428_p \
 N_noxref_3_c_342_n N_noxref_3_c_343_n N_noxref_3_c_344_n N_noxref_3_c_345_n \
 N_noxref_3_c_347_n N_noxref_3_c_348_n N_noxref_3_c_378_n )  \
 PM_XOR2X1_PCELL\%noxref_3
x_PM_XOR2X1_PCELL\%noxref_4 ( N_noxref_4_c_455_n N_noxref_4_c_464_n \
 N_noxref_4_c_467_n N_noxref_4_c_506_n N_noxref_4_c_482_n N_noxref_4_c_485_n \
 N_noxref_4_c_470_n N_noxref_4_c_473_n N_noxref_4_M4_noxref_g \
 N_noxref_4_M14_noxref_g N_noxref_4_M15_noxref_g N_noxref_4_c_555_p \
 N_noxref_4_c_556_p N_noxref_4_c_557_p N_noxref_4_c_545_p N_noxref_4_c_559_p \
 N_noxref_4_c_546_p N_noxref_4_c_561_p N_noxref_4_c_547_p N_noxref_4_c_540_p \
 N_noxref_4_M0_noxref_d N_noxref_4_M6_noxref_d )  PM_XOR2X1_PCELL\%noxref_4
x_PM_XOR2X1_PCELL\%noxref_5 ( N_noxref_5_c_653_n N_noxref_5_c_651_n \
 N_noxref_5_c_636_n N_noxref_5_c_638_n N_noxref_5_c_624_n N_noxref_5_c_659_n \
 N_noxref_5_c_625_n N_noxref_5_c_641_n N_noxref_5_c_643_n N_noxref_5_c_626_n \
 N_noxref_5_c_672_n N_noxref_5_c_628_n N_noxref_5_M2_noxref_d \
 N_noxref_5_M4_noxref_d N_noxref_5_M10_noxref_d N_noxref_5_M14_noxref_d )  \
 PM_XOR2X1_PCELL\%noxref_5
x_PM_XOR2X1_PCELL\%noxref_6 ( N_noxref_6_c_794_n N_noxref_6_c_799_n \
 N_noxref_6_c_831_n N_noxref_6_c_833_n N_noxref_6_c_800_n N_noxref_6_c_773_n \
 N_noxref_6_c_774_n N_noxref_6_c_775_n N_noxref_6_c_776_n N_noxref_6_c_804_n \
 N_noxref_6_c_805_n N_noxref_6_M3_noxref_g N_noxref_6_M10_noxref_g \
 N_noxref_6_M11_noxref_g N_noxref_6_c_780_n N_noxref_6_c_782_n \
 N_noxref_6_c_783_n N_noxref_6_c_784_n N_noxref_6_c_785_n N_noxref_6_c_786_n \
 N_noxref_6_c_787_n N_noxref_6_c_789_n N_noxref_6_c_826_n \
 N_noxref_6_M5_noxref_d N_noxref_6_M16_noxref_d )  PM_XOR2X1_PCELL\%noxref_6
x_PM_XOR2X1_PCELL\%noxref_7 ( N_noxref_7_c_938_n N_noxref_7_c_991_n \
 N_noxref_7_c_962_n N_noxref_7_c_970_n N_noxref_7_c_945_n N_noxref_7_c_972_n \
 N_noxref_7_c_947_n N_noxref_7_M2_noxref_g N_noxref_7_M5_noxref_g \
 N_noxref_7_M12_noxref_g N_noxref_7_M13_noxref_g N_noxref_7_M16_noxref_g \
 N_noxref_7_M17_noxref_g N_noxref_7_c_994_n N_noxref_7_c_997_n \
 N_noxref_7_c_999_n N_noxref_7_c_1002_n N_noxref_7_c_1045_n \
 N_noxref_7_c_1046_n N_noxref_7_c_1004_n N_noxref_7_c_1005_n \
 N_noxref_7_c_952_n N_noxref_7_c_954_n N_noxref_7_c_1081_n N_noxref_7_c_987_n \
 N_noxref_7_c_955_n N_noxref_7_c_1085_n N_noxref_7_c_988_n N_noxref_7_c_956_n \
 N_noxref_7_c_1089_n N_noxref_7_c_1090_n N_noxref_7_c_958_n N_noxref_7_c_990_n \
 N_noxref_7_c_959_n )  PM_XOR2X1_PCELL\%noxref_7
x_PM_XOR2X1_PCELL\%noxref_8 ( N_noxref_8_c_1111_n N_noxref_8_c_1116_n \
 N_noxref_8_c_1118_n N_noxref_8_c_1119_n N_noxref_8_M8_noxref_s \
 N_noxref_8_M9_noxref_d N_noxref_8_M11_noxref_d )  PM_XOR2X1_PCELL\%noxref_8
x_PM_XOR2X1_PCELL\%noxref_9 ( N_noxref_9_c_1151_n N_noxref_9_c_1152_n \
 N_noxref_9_c_1156_n N_noxref_9_c_1160_n N_noxref_9_c_1161_n \
 N_noxref_9_c_1164_n N_noxref_9_M1_noxref_s )  PM_XOR2X1_PCELL\%noxref_9
x_PM_XOR2X1_PCELL\%noxref_10 ( N_noxref_10_c_1203_n N_noxref_10_c_1208_n \
 N_noxref_10_c_1209_n N_noxref_10_c_1210_n N_noxref_10_M12_noxref_s \
 N_noxref_10_M13_noxref_d N_noxref_10_M15_noxref_d )  PM_XOR2X1_PCELL\%noxref_10
x_PM_XOR2X1_PCELL\%noxref_11 ( N_noxref_11_c_1270_n N_noxref_11_c_1246_n \
 N_noxref_11_c_1250_n N_noxref_11_c_1254_n N_noxref_11_c_1255_n \
 N_noxref_11_c_1258_n N_noxref_11_M3_noxref_s )  PM_XOR2X1_PCELL\%noxref_11
cc_1 ( N_noxref_1_c_1_p N_noxref_2_c_166_n ) capacitor c=0.00989031f //x=0.63 \
 //y=0 //x2=0.74 //y2=7.4
cc_2 ( N_noxref_1_c_2_p N_noxref_2_c_167_n ) capacitor c=0.00582097f //x=2.22 \
 //y=0 //x2=2.22 //y2=7.4
cc_3 ( N_noxref_1_c_3_p N_noxref_2_c_168_n ) capacitor c=0.0057235f //x=5.55 \
 //y=0 //x2=5.55 //y2=7.4
cc_4 ( N_noxref_1_c_4_p N_noxref_2_c_169_n ) capacitor c=0.00478842f //x=8.88 \
 //y=0 //x2=8.88 //y2=7.4
cc_5 ( N_noxref_1_c_5_p N_noxref_2_c_170_n ) capacitor c=0.00989031f //x=10.47 \
 //y=0 //x2=10.36 //y2=7.4
cc_6 ( N_noxref_1_c_6_p N_noxref_3_c_322_n ) capacitor c=0.00375415f //x=10.36 \
 //y=0 //x2=3.215 //y2=4.07
cc_7 ( N_noxref_1_c_2_p N_noxref_3_c_322_n ) capacitor c=0.00249386f //x=2.22 \
 //y=0 //x2=3.215 //y2=4.07
cc_8 ( N_noxref_1_c_6_p N_noxref_3_c_324_n ) capacitor c=0.00155455f //x=10.36 \
 //y=0 //x2=0.855 //y2=4.07
cc_9 ( N_noxref_1_M0_noxref_s N_noxref_3_c_324_n ) capacitor c=5.91312e-19 \
 //x=0.495 //y=0.37 //x2=0.855 //y2=4.07
cc_10 ( N_noxref_1_c_6_p N_noxref_3_c_326_n ) capacitor c=0.00187124f \
 //x=10.36 //y=0 //x2=0.74 //y2=2.085
cc_11 ( N_noxref_1_c_11_p N_noxref_3_c_326_n ) capacitor c=8.01092e-19 \
 //x=1.03 //y=0.535 //x2=0.74 //y2=2.085
cc_12 ( N_noxref_1_c_1_p N_noxref_3_c_326_n ) capacitor c=0.028767f //x=0.63 \
 //y=0 //x2=0.74 //y2=2.085
cc_13 ( N_noxref_1_c_2_p N_noxref_3_c_326_n ) capacitor c=0.00133655f //x=2.22 \
 //y=0 //x2=0.74 //y2=2.085
cc_14 ( N_noxref_1_M0_noxref_s N_noxref_3_c_326_n ) capacitor c=0.0110965f \
 //x=0.495 //y=0.37 //x2=0.74 //y2=2.085
cc_15 ( N_noxref_1_c_2_p N_noxref_3_c_331_n ) capacitor c=0.0151398f //x=2.22 \
 //y=0 //x2=3.33 //y2=2.085
cc_16 ( N_noxref_1_c_11_p N_noxref_3_c_332_n ) capacitor c=0.0120496f //x=1.03 \
 //y=0.535 //x2=0.85 //y2=0.91
cc_17 ( N_noxref_1_M0_noxref_s N_noxref_3_c_332_n ) capacitor c=0.0316686f \
 //x=0.495 //y=0.37 //x2=0.85 //y2=0.91
cc_18 ( N_noxref_1_c_1_p N_noxref_3_c_334_n ) capacitor c=0.0124051f //x=0.63 \
 //y=0 //x2=0.85 //y2=1.92
cc_19 ( N_noxref_1_M0_noxref_s N_noxref_3_c_335_n ) capacitor c=0.00483274f \
 //x=0.495 //y=0.37 //x2=1.225 //y2=0.755
cc_20 ( N_noxref_1_c_20_p N_noxref_3_c_336_n ) capacitor c=0.0118602f \
 //x=1.515 //y=0.535 //x2=1.38 //y2=0.91
cc_21 ( N_noxref_1_M0_noxref_s N_noxref_3_c_336_n ) capacitor c=0.0143355f \
 //x=0.495 //y=0.37 //x2=1.38 //y2=0.91
cc_22 ( N_noxref_1_M0_noxref_s N_noxref_3_c_338_n ) capacitor c=0.0074042f \
 //x=0.495 //y=0.37 //x2=1.38 //y2=1.255
cc_23 ( N_noxref_1_c_23_p N_noxref_3_c_339_n ) capacitor c=0.00134217f \
 //x=3.315 //y=0 //x2=3.135 //y2=0.87
cc_24 ( N_noxref_1_M1_noxref_d N_noxref_3_c_339_n ) capacitor c=0.00220047f \
 //x=3.21 //y=0.87 //x2=3.135 //y2=0.87
cc_25 ( N_noxref_1_M1_noxref_d N_noxref_3_c_341_n ) capacitor c=0.00255985f \
 //x=3.21 //y=0.87 //x2=3.135 //y2=1.215
cc_26 ( N_noxref_1_c_2_p N_noxref_3_c_342_n ) capacitor c=0.0114882f //x=2.22 \
 //y=0 //x2=3.135 //y2=1.92
cc_27 ( N_noxref_1_M1_noxref_d N_noxref_3_c_343_n ) capacitor c=0.013135f \
 //x=3.21 //y=0.87 //x2=3.51 //y2=0.715
cc_28 ( N_noxref_1_M1_noxref_d N_noxref_3_c_344_n ) capacitor c=0.00193136f \
 //x=3.21 //y=0.87 //x2=3.51 //y2=1.37
cc_29 ( N_noxref_1_c_29_p N_noxref_3_c_345_n ) capacitor c=0.00129817f \
 //x=5.38 //y=0 //x2=3.665 //y2=0.87
cc_30 ( N_noxref_1_M1_noxref_d N_noxref_3_c_345_n ) capacitor c=0.00257848f \
 //x=3.21 //y=0.87 //x2=3.665 //y2=0.87
cc_31 ( N_noxref_1_M1_noxref_d N_noxref_3_c_347_n ) capacitor c=0.00255985f \
 //x=3.21 //y=0.87 //x2=3.665 //y2=1.215
cc_32 ( N_noxref_1_c_11_p N_noxref_3_c_348_n ) capacitor c=2.1838e-19 //x=1.03 \
 //y=0.535 //x2=0.74 //y2=2.085
cc_33 ( N_noxref_1_c_1_p N_noxref_3_c_348_n ) capacitor c=0.0108179f //x=0.63 \
 //y=0 //x2=0.74 //y2=2.085
cc_34 ( N_noxref_1_M0_noxref_s N_noxref_3_c_348_n ) capacitor c=0.00655738f \
 //x=0.495 //y=0.37 //x2=0.74 //y2=2.085
cc_35 ( N_noxref_1_c_6_p N_noxref_4_c_455_n ) capacitor c=0.0533505f //x=10.36 \
 //y=0 //x2=7.655 //y2=2.59
cc_36 ( N_noxref_1_c_36_p N_noxref_4_c_455_n ) capacitor c=0.0015622f //x=2.05 \
 //y=0 //x2=7.655 //y2=2.59
cc_37 ( N_noxref_1_c_23_p N_noxref_4_c_455_n ) capacitor c=0.00281115f \
 //x=3.315 //y=0 //x2=7.655 //y2=2.59
cc_38 ( N_noxref_1_c_29_p N_noxref_4_c_455_n ) capacitor c=0.00346399f \
 //x=5.38 //y=0 //x2=7.655 //y2=2.59
cc_39 ( N_noxref_1_c_39_p N_noxref_4_c_455_n ) capacitor c=0.00281115f \
 //x=6.645 //y=0 //x2=7.655 //y2=2.59
cc_40 ( N_noxref_1_c_40_p N_noxref_4_c_455_n ) capacitor c=9.27524e-19 \
 //x=8.71 //y=0 //x2=7.655 //y2=2.59
cc_41 ( N_noxref_1_c_2_p N_noxref_4_c_455_n ) capacitor c=0.038878f //x=2.22 \
 //y=0 //x2=7.655 //y2=2.59
cc_42 ( N_noxref_1_c_3_p N_noxref_4_c_455_n ) capacitor c=0.0338055f //x=5.55 \
 //y=0 //x2=7.655 //y2=2.59
cc_43 ( N_noxref_1_M0_noxref_s N_noxref_4_c_455_n ) capacitor c=0.00248261f \
 //x=0.495 //y=0.37 //x2=7.655 //y2=2.59
cc_44 ( N_noxref_1_c_6_p N_noxref_4_c_464_n ) capacitor c=0.00231366f \
 //x=10.36 //y=0 //x2=1.595 //y2=2.59
cc_45 ( N_noxref_1_c_2_p N_noxref_4_c_464_n ) capacitor c=0.00209945f //x=2.22 \
 //y=0 //x2=1.595 //y2=2.59
cc_46 ( N_noxref_1_M0_noxref_s N_noxref_4_c_464_n ) capacitor c=0.00120637f \
 //x=0.495 //y=0.37 //x2=1.595 //y2=2.59
cc_47 ( N_noxref_1_c_6_p N_noxref_4_c_467_n ) capacitor c=0.00129718f \
 //x=10.36 //y=0 //x2=1.395 //y2=2.08
cc_48 ( N_noxref_1_c_2_p N_noxref_4_c_467_n ) capacitor c=0.0263587f //x=2.22 \
 //y=0 //x2=1.395 //y2=2.08
cc_49 ( N_noxref_1_M0_noxref_s N_noxref_4_c_467_n ) capacitor c=0.00949589f \
 //x=0.495 //y=0.37 //x2=1.395 //y2=2.08
cc_50 ( N_noxref_1_c_1_p N_noxref_4_c_470_n ) capacitor c=9.71e-19 //x=0.63 \
 //y=0 //x2=1.48 //y2=2.59
cc_51 ( N_noxref_1_c_2_p N_noxref_4_c_470_n ) capacitor c=5.56859e-19 //x=2.22 \
 //y=0 //x2=1.48 //y2=2.59
cc_52 ( N_noxref_1_M0_noxref_s N_noxref_4_c_470_n ) capacitor c=2.30929e-19 \
 //x=0.495 //y=0.37 //x2=1.48 //y2=2.59
cc_53 ( N_noxref_1_c_3_p N_noxref_4_c_473_n ) capacitor c=6.8921e-19 //x=5.55 \
 //y=0 //x2=7.77 //y2=2.085
cc_54 ( N_noxref_1_c_4_p N_noxref_4_c_473_n ) capacitor c=0.00183906f //x=8.88 \
 //y=0 //x2=7.77 //y2=2.085
cc_55 ( N_noxref_1_c_6_p N_noxref_4_M0_noxref_d ) capacitor c=0.00136354f \
 //x=10.36 //y=0 //x2=0.925 //y2=0.91
cc_56 ( N_noxref_1_c_11_p N_noxref_4_M0_noxref_d ) capacitor c=0.0151737f \
 //x=1.03 //y=0.535 //x2=0.925 //y2=0.91
cc_57 ( N_noxref_1_c_1_p N_noxref_4_M0_noxref_d ) capacitor c=0.0094373f \
 //x=0.63 //y=0 //x2=0.925 //y2=0.91
cc_58 ( N_noxref_1_c_2_p N_noxref_4_M0_noxref_d ) capacitor c=0.00949341f \
 //x=2.22 //y=0 //x2=0.925 //y2=0.91
cc_59 ( N_noxref_1_c_5_p N_noxref_4_M0_noxref_d ) capacitor c=2.29264e-19 \
 //x=10.47 //y=0 //x2=0.925 //y2=0.91
cc_60 ( N_noxref_1_M0_noxref_s N_noxref_4_M0_noxref_d ) capacitor c=0.076995f \
 //x=0.495 //y=0.37 //x2=0.925 //y2=0.91
cc_61 ( N_noxref_1_c_3_p N_noxref_5_c_624_n ) capacitor c=0.0428968f //x=5.55 \
 //y=0 //x2=4.725 //y2=1.655
cc_62 ( N_noxref_1_c_2_p N_noxref_5_c_625_n ) capacitor c=0.00105873f //x=2.22 \
 //y=0 //x2=4.81 //y2=3.7
cc_63 ( N_noxref_1_c_4_p N_noxref_5_c_626_n ) capacitor c=0.0446773f //x=8.88 \
 //y=0 //x2=8.055 //y2=1.655
cc_64 ( N_noxref_1_M5_noxref_s N_noxref_5_c_626_n ) capacitor c=3.42693e-19 \
 //x=9.375 //y=0.37 //x2=8.055 //y2=1.655
cc_65 ( N_noxref_1_c_3_p N_noxref_5_c_628_n ) capacitor c=0.00100332f //x=5.55 \
 //y=0 //x2=8.14 //y2=3.7
cc_66 ( N_noxref_1_c_2_p N_noxref_5_M2_noxref_d ) capacitor c=8.60262e-19 \
 //x=2.22 //y=0 //x2=4.18 //y2=0.91
cc_67 ( N_noxref_1_c_3_p N_noxref_5_M2_noxref_d ) capacitor c=0.00605305f \
 //x=5.55 //y=0 //x2=4.18 //y2=0.91
cc_68 ( N_noxref_1_M1_noxref_d N_noxref_5_M2_noxref_d ) capacitor \
 c=0.00143464f //x=3.21 //y=0.87 //x2=4.18 //y2=0.91
cc_69 ( N_noxref_1_c_3_p N_noxref_5_M4_noxref_d ) capacitor c=8.60262e-19 \
 //x=5.55 //y=0 //x2=7.51 //y2=0.91
cc_70 ( N_noxref_1_c_4_p N_noxref_5_M4_noxref_d ) capacitor c=0.00605305f \
 //x=8.88 //y=0 //x2=7.51 //y2=0.91
cc_71 ( N_noxref_1_M3_noxref_d N_noxref_5_M4_noxref_d ) capacitor \
 c=0.00143464f //x=6.54 //y=0.87 //x2=7.51 //y2=0.91
cc_72 ( N_noxref_1_M5_noxref_s N_noxref_5_M4_noxref_d ) capacitor \
 c=2.07711e-19 //x=9.375 //y=0.37 //x2=7.51 //y2=0.91
cc_73 ( N_noxref_1_c_3_p N_noxref_6_c_773_n ) capacitor c=0.0151475f //x=5.55 \
 //y=0 //x2=6.66 //y2=2.085
cc_74 ( N_noxref_1_c_5_p N_noxref_6_c_774_n ) capacitor c=0.00114558f \
 //x=10.47 //y=0 //x2=9.62 //y2=3.33
cc_75 ( N_noxref_1_M5_noxref_s N_noxref_6_c_775_n ) capacitor c=0.00178356f \
 //x=9.375 //y=0.37 //x2=9.905 //y2=2.08
cc_76 ( N_noxref_1_c_6_p N_noxref_6_c_776_n ) capacitor c=0.00128495f \
 //x=10.36 //y=0 //x2=9.705 //y2=2.08
cc_77 ( N_noxref_1_c_77_p N_noxref_6_c_776_n ) capacitor c=0.00178356f //x=9.9 \
 //y=0.535 //x2=9.705 //y2=2.08
cc_78 ( N_noxref_1_c_4_p N_noxref_6_c_776_n ) capacitor c=0.0291959f //x=8.88 \
 //y=0 //x2=9.705 //y2=2.08
cc_79 ( N_noxref_1_M5_noxref_s N_noxref_6_c_776_n ) capacitor c=0.00610757f \
 //x=9.375 //y=0.37 //x2=9.705 //y2=2.08
cc_80 ( N_noxref_1_c_39_p N_noxref_6_c_780_n ) capacitor c=0.00134217f \
 //x=6.645 //y=0 //x2=6.465 //y2=0.87
cc_81 ( N_noxref_1_M3_noxref_d N_noxref_6_c_780_n ) capacitor c=0.00220047f \
 //x=6.54 //y=0.87 //x2=6.465 //y2=0.87
cc_82 ( N_noxref_1_M3_noxref_d N_noxref_6_c_782_n ) capacitor c=0.00255985f \
 //x=6.54 //y=0.87 //x2=6.465 //y2=1.215
cc_83 ( N_noxref_1_c_3_p N_noxref_6_c_783_n ) capacitor c=0.00176175f //x=5.55 \
 //y=0 //x2=6.465 //y2=1.525
cc_84 ( N_noxref_1_c_3_p N_noxref_6_c_784_n ) capacitor c=0.0114882f //x=5.55 \
 //y=0 //x2=6.465 //y2=1.92
cc_85 ( N_noxref_1_M3_noxref_d N_noxref_6_c_785_n ) capacitor c=0.013135f \
 //x=6.54 //y=0.87 //x2=6.84 //y2=0.715
cc_86 ( N_noxref_1_M3_noxref_d N_noxref_6_c_786_n ) capacitor c=0.00193136f \
 //x=6.54 //y=0.87 //x2=6.84 //y2=1.37
cc_87 ( N_noxref_1_c_40_p N_noxref_6_c_787_n ) capacitor c=0.00129817f \
 //x=8.71 //y=0 //x2=6.995 //y2=0.87
cc_88 ( N_noxref_1_M3_noxref_d N_noxref_6_c_787_n ) capacitor c=0.00257848f \
 //x=6.54 //y=0.87 //x2=6.995 //y2=0.87
cc_89 ( N_noxref_1_M3_noxref_d N_noxref_6_c_789_n ) capacitor c=0.00255985f \
 //x=6.54 //y=0.87 //x2=6.995 //y2=1.215
cc_90 ( N_noxref_1_c_6_p N_noxref_6_M5_noxref_d ) capacitor c=0.00124113f \
 //x=10.36 //y=0 //x2=9.795 //y2=0.91
cc_91 ( N_noxref_1_c_4_p N_noxref_6_M5_noxref_d ) capacitor c=0.00945919f \
 //x=8.88 //y=0 //x2=9.795 //y2=0.91
cc_92 ( N_noxref_1_c_5_p N_noxref_6_M5_noxref_d ) capacitor c=0.00966656f \
 //x=10.47 //y=0 //x2=9.795 //y2=0.91
cc_93 ( N_noxref_1_M5_noxref_s N_noxref_6_M5_noxref_d ) capacitor c=0.0920431f \
 //x=9.375 //y=0.37 //x2=9.795 //y2=0.91
cc_94 ( N_noxref_1_c_6_p N_noxref_7_c_938_n ) capacitor c=0.0344763f //x=10.36 \
 //y=0 //x2=10.245 //y2=2.96
cc_95 ( N_noxref_1_c_40_p N_noxref_7_c_938_n ) capacitor c=0.00209087f \
 //x=8.71 //y=0 //x2=10.245 //y2=2.96
cc_96 ( N_noxref_1_c_96_p N_noxref_7_c_938_n ) capacitor c=0.00129597f \
 //x=9.415 //y=0 //x2=10.245 //y2=2.96
cc_97 ( N_noxref_1_c_77_p N_noxref_7_c_938_n ) capacitor c=0.00114872f //x=9.9 \
 //y=0.535 //x2=10.245 //y2=2.96
cc_98 ( N_noxref_1_c_3_p N_noxref_7_c_938_n ) capacitor c=0.00750857f //x=5.55 \
 //y=0 //x2=10.245 //y2=2.96
cc_99 ( N_noxref_1_c_4_p N_noxref_7_c_938_n ) capacitor c=0.0144849f //x=8.88 \
 //y=0 //x2=10.245 //y2=2.96
cc_100 ( N_noxref_1_M5_noxref_s N_noxref_7_c_938_n ) capacitor c=0.00405051f \
 //x=9.375 //y=0.37 //x2=10.245 //y2=2.96
cc_101 ( N_noxref_1_c_2_p N_noxref_7_c_945_n ) capacitor c=6.9974e-19 //x=2.22 \
 //y=0 //x2=4.44 //y2=2.085
cc_102 ( N_noxref_1_c_3_p N_noxref_7_c_945_n ) capacitor c=0.00164431f \
 //x=5.55 //y=0 //x2=4.44 //y2=2.085
cc_103 ( N_noxref_1_c_6_p N_noxref_7_c_947_n ) capacitor c=0.00183756f \
 //x=10.36 //y=0 //x2=10.36 //y2=2.085
cc_104 ( N_noxref_1_c_104_p N_noxref_7_c_947_n ) capacitor c=7.8474e-19 \
 //x=10.385 //y=0.535 //x2=10.36 //y2=2.085
cc_105 ( N_noxref_1_c_4_p N_noxref_7_c_947_n ) capacitor c=0.00146529f \
 //x=8.88 //y=0 //x2=10.36 //y2=2.085
cc_106 ( N_noxref_1_c_5_p N_noxref_7_c_947_n ) capacitor c=0.0290276f \
 //x=10.47 //y=0 //x2=10.36 //y2=2.085
cc_107 ( N_noxref_1_M5_noxref_s N_noxref_7_c_947_n ) capacitor c=0.0102424f \
 //x=9.375 //y=0.37 //x2=10.36 //y2=2.085
cc_108 ( N_noxref_1_c_77_p N_noxref_7_c_952_n ) capacitor c=0.0119174f //x=9.9 \
 //y=0.535 //x2=9.72 //y2=0.91
cc_109 ( N_noxref_1_M5_noxref_s N_noxref_7_c_952_n ) capacitor c=0.0143355f \
 //x=9.375 //y=0.37 //x2=9.72 //y2=0.91
cc_110 ( N_noxref_1_M5_noxref_s N_noxref_7_c_954_n ) capacitor c=0.0074042f \
 //x=9.375 //y=0.37 //x2=9.72 //y2=1.255
cc_111 ( N_noxref_1_M5_noxref_s N_noxref_7_c_955_n ) capacitor c=0.00489f \
 //x=9.375 //y=0.37 //x2=10.095 //y2=0.755
cc_112 ( N_noxref_1_c_104_p N_noxref_7_c_956_n ) capacitor c=0.0123171f \
 //x=10.385 //y=0.535 //x2=10.25 //y2=0.91
cc_113 ( N_noxref_1_M5_noxref_s N_noxref_7_c_956_n ) capacitor c=0.0317181f \
 //x=9.375 //y=0.37 //x2=10.25 //y2=0.91
cc_114 ( N_noxref_1_c_5_p N_noxref_7_c_958_n ) capacitor c=0.0124051f \
 //x=10.47 //y=0 //x2=10.25 //y2=1.92
cc_115 ( N_noxref_1_c_104_p N_noxref_7_c_959_n ) capacitor c=2.1838e-19 \
 //x=10.385 //y=0.535 //x2=10.25 //y2=2.085
cc_116 ( N_noxref_1_c_5_p N_noxref_7_c_959_n ) capacitor c=0.0108179f \
 //x=10.47 //y=0 //x2=10.25 //y2=2.085
cc_117 ( N_noxref_1_M5_noxref_s N_noxref_7_c_959_n ) capacitor c=0.00652836f \
 //x=9.375 //y=0.37 //x2=10.25 //y2=2.085
cc_118 ( N_noxref_1_M0_noxref_s N_noxref_9_c_1151_n ) capacitor c=0.0013253f \
 //x=0.495 //y=0.37 //x2=2.915 //y2=1.5
cc_119 ( N_noxref_1_c_6_p N_noxref_9_c_1152_n ) capacitor c=0.00529166f \
 //x=10.36 //y=0 //x2=3.8 //y2=1.585
cc_120 ( N_noxref_1_c_23_p N_noxref_9_c_1152_n ) capacitor c=0.00112205f \
 //x=3.315 //y=0 //x2=3.8 //y2=1.585
cc_121 ( N_noxref_1_c_29_p N_noxref_9_c_1152_n ) capacitor c=0.00181496f \
 //x=5.38 //y=0 //x2=3.8 //y2=1.585
cc_122 ( N_noxref_1_M1_noxref_d N_noxref_9_c_1152_n ) capacitor c=0.00879196f \
 //x=3.21 //y=0.87 //x2=3.8 //y2=1.585
cc_123 ( N_noxref_1_c_6_p N_noxref_9_c_1156_n ) capacitor c=0.0026904f \
 //x=10.36 //y=0 //x2=3.885 //y2=0.62
cc_124 ( N_noxref_1_c_29_p N_noxref_9_c_1156_n ) capacitor c=0.0144735f \
 //x=5.38 //y=0 //x2=3.885 //y2=0.62
cc_125 ( N_noxref_1_c_5_p N_noxref_9_c_1156_n ) capacitor c=0.00141889f \
 //x=10.47 //y=0 //x2=3.885 //y2=0.62
cc_126 ( N_noxref_1_M1_noxref_d N_noxref_9_c_1156_n ) capacitor c=0.033812f \
 //x=3.21 //y=0.87 //x2=3.885 //y2=0.62
cc_127 ( N_noxref_1_c_2_p N_noxref_9_c_1160_n ) capacitor c=2.91423e-19 \
 //x=2.22 //y=0 //x2=3.885 //y2=1.5
cc_128 ( N_noxref_1_c_6_p N_noxref_9_c_1161_n ) capacitor c=0.0111125f \
 //x=10.36 //y=0 //x2=4.77 //y2=0.535
cc_129 ( N_noxref_1_c_29_p N_noxref_9_c_1161_n ) capacitor c=0.0370011f \
 //x=5.38 //y=0 //x2=4.77 //y2=0.535
cc_130 ( N_noxref_1_c_5_p N_noxref_9_c_1161_n ) capacitor c=0.00194827f \
 //x=10.47 //y=0 //x2=4.77 //y2=0.535
cc_131 ( N_noxref_1_c_6_p N_noxref_9_c_1164_n ) capacitor c=0.00268883f \
 //x=10.36 //y=0 //x2=4.855 //y2=0.62
cc_132 ( N_noxref_1_c_29_p N_noxref_9_c_1164_n ) capacitor c=0.0144105f \
 //x=5.38 //y=0 //x2=4.855 //y2=0.62
cc_133 ( N_noxref_1_c_3_p N_noxref_9_c_1164_n ) capacitor c=0.0431718f \
 //x=5.55 //y=0 //x2=4.855 //y2=0.62
cc_134 ( N_noxref_1_c_5_p N_noxref_9_c_1164_n ) capacitor c=0.00141054f \
 //x=10.47 //y=0 //x2=4.855 //y2=0.62
cc_135 ( N_noxref_1_c_6_p N_noxref_9_M1_noxref_s ) capacitor c=0.0026904f \
 //x=10.36 //y=0 //x2=2.78 //y2=0.37
cc_136 ( N_noxref_1_c_136_p N_noxref_9_M1_noxref_s ) capacitor c=0.0013253f \
 //x=1.6 //y=0.45 //x2=2.78 //y2=0.37
cc_137 ( N_noxref_1_c_23_p N_noxref_9_M1_noxref_s ) capacitor c=0.0144735f \
 //x=3.315 //y=0 //x2=2.78 //y2=0.37
cc_138 ( N_noxref_1_c_2_p N_noxref_9_M1_noxref_s ) capacitor c=0.058339f \
 //x=2.22 //y=0 //x2=2.78 //y2=0.37
cc_139 ( N_noxref_1_c_3_p N_noxref_9_M1_noxref_s ) capacitor c=0.00200438f \
 //x=5.55 //y=0 //x2=2.78 //y2=0.37
cc_140 ( N_noxref_1_c_5_p N_noxref_9_M1_noxref_s ) capacitor c=0.00141889f \
 //x=10.47 //y=0 //x2=2.78 //y2=0.37
cc_141 ( N_noxref_1_M1_noxref_d N_noxref_9_M1_noxref_s ) capacitor \
 c=0.0334197f //x=3.21 //y=0.87 //x2=2.78 //y2=0.37
cc_142 ( N_noxref_1_c_6_p N_noxref_11_c_1246_n ) capacitor c=0.00529166f \
 //x=10.36 //y=0 //x2=7.13 //y2=1.585
cc_143 ( N_noxref_1_c_39_p N_noxref_11_c_1246_n ) capacitor c=0.00112205f \
 //x=6.645 //y=0 //x2=7.13 //y2=1.585
cc_144 ( N_noxref_1_c_40_p N_noxref_11_c_1246_n ) capacitor c=0.00181496f \
 //x=8.71 //y=0 //x2=7.13 //y2=1.585
cc_145 ( N_noxref_1_M3_noxref_d N_noxref_11_c_1246_n ) capacitor c=0.00879196f \
 //x=6.54 //y=0.87 //x2=7.13 //y2=1.585
cc_146 ( N_noxref_1_c_6_p N_noxref_11_c_1250_n ) capacitor c=0.0026904f \
 //x=10.36 //y=0 //x2=7.215 //y2=0.62
cc_147 ( N_noxref_1_c_40_p N_noxref_11_c_1250_n ) capacitor c=0.0144735f \
 //x=8.71 //y=0 //x2=7.215 //y2=0.62
cc_148 ( N_noxref_1_c_5_p N_noxref_11_c_1250_n ) capacitor c=0.00141889f \
 //x=10.47 //y=0 //x2=7.215 //y2=0.62
cc_149 ( N_noxref_1_M3_noxref_d N_noxref_11_c_1250_n ) capacitor c=0.033812f \
 //x=6.54 //y=0.87 //x2=7.215 //y2=0.62
cc_150 ( N_noxref_1_c_3_p N_noxref_11_c_1254_n ) capacitor c=2.91423e-19 \
 //x=5.55 //y=0 //x2=7.215 //y2=1.5
cc_151 ( N_noxref_1_c_6_p N_noxref_11_c_1255_n ) capacitor c=0.0112038f \
 //x=10.36 //y=0 //x2=8.1 //y2=0.535
cc_152 ( N_noxref_1_c_40_p N_noxref_11_c_1255_n ) capacitor c=0.0370216f \
 //x=8.71 //y=0 //x2=8.1 //y2=0.535
cc_153 ( N_noxref_1_c_5_p N_noxref_11_c_1255_n ) capacitor c=0.00194827f \
 //x=10.47 //y=0 //x2=8.1 //y2=0.535
cc_154 ( N_noxref_1_c_6_p N_noxref_11_c_1258_n ) capacitor c=0.00280093f \
 //x=10.36 //y=0 //x2=8.185 //y2=0.62
cc_155 ( N_noxref_1_c_40_p N_noxref_11_c_1258_n ) capacitor c=0.0144899f \
 //x=8.71 //y=0 //x2=8.185 //y2=0.62
cc_156 ( N_noxref_1_c_156_p N_noxref_11_c_1258_n ) capacitor c=9.92084e-19 \
 //x=9.5 //y=0.45 //x2=8.185 //y2=0.62
cc_157 ( N_noxref_1_c_4_p N_noxref_11_c_1258_n ) capacitor c=0.0431718f \
 //x=8.88 //y=0 //x2=8.185 //y2=0.62
cc_158 ( N_noxref_1_c_5_p N_noxref_11_c_1258_n ) capacitor c=0.00141054f \
 //x=10.47 //y=0 //x2=8.185 //y2=0.62
cc_159 ( N_noxref_1_c_6_p N_noxref_11_M3_noxref_s ) capacitor c=0.0026904f \
 //x=10.36 //y=0 //x2=6.11 //y2=0.37
cc_160 ( N_noxref_1_c_39_p N_noxref_11_M3_noxref_s ) capacitor c=0.0144735f \
 //x=6.645 //y=0 //x2=6.11 //y2=0.37
cc_161 ( N_noxref_1_c_3_p N_noxref_11_M3_noxref_s ) capacitor c=0.058339f \
 //x=5.55 //y=0 //x2=6.11 //y2=0.37
cc_162 ( N_noxref_1_c_4_p N_noxref_11_M3_noxref_s ) capacitor c=0.00200548f \
 //x=8.88 //y=0 //x2=6.11 //y2=0.37
cc_163 ( N_noxref_1_c_5_p N_noxref_11_M3_noxref_s ) capacitor c=0.00141889f \
 //x=10.47 //y=0 //x2=6.11 //y2=0.37
cc_164 ( N_noxref_1_M3_noxref_d N_noxref_11_M3_noxref_s ) capacitor \
 c=0.0334197f //x=6.54 //y=0.87 //x2=6.11 //y2=0.37
cc_165 ( N_noxref_1_M5_noxref_s N_noxref_11_M3_noxref_s ) capacitor \
 c=9.92084e-19 //x=9.375 //y=0.37 //x2=6.11 //y2=0.37
cc_166 ( N_noxref_2_c_171_p N_noxref_3_c_322_n ) capacitor c=0.0179155f \
 //x=10.36 //y=7.4 //x2=3.215 //y2=4.07
cc_167 ( N_noxref_2_c_172_p N_noxref_3_c_322_n ) capacitor c=9.77842e-19 \
 //x=1.47 //y=7.4 //x2=3.215 //y2=4.07
cc_168 ( N_noxref_2_c_173_p N_noxref_3_c_322_n ) capacitor c=0.00124367f \
 //x=2.05 //y=7.4 //x2=3.215 //y2=4.07
cc_169 ( N_noxref_2_c_174_p N_noxref_3_c_322_n ) capacitor c=0.00216965f \
 //x=3.365 //y=7.4 //x2=3.215 //y2=4.07
cc_170 ( N_noxref_2_c_167_n N_noxref_3_c_322_n ) capacitor c=0.0280406f \
 //x=2.22 //y=7.4 //x2=3.215 //y2=4.07
cc_171 ( N_noxref_2_M7_noxref_d N_noxref_3_c_322_n ) capacitor c=0.00213856f \
 //x=1.41 //y=5.02 //x2=3.215 //y2=4.07
cc_172 ( N_noxref_2_c_171_p N_noxref_3_c_324_n ) capacitor c=0.00188164f \
 //x=10.36 //y=7.4 //x2=0.855 //y2=4.07
cc_173 ( N_noxref_2_c_166_n N_noxref_3_c_324_n ) capacitor c=0.00208272f \
 //x=0.74 //y=7.4 //x2=0.855 //y2=4.07
cc_174 ( N_noxref_2_M6_noxref_s N_noxref_3_c_324_n ) capacitor c=0.00185024f \
 //x=0.54 //y=5.02 //x2=0.855 //y2=4.07
cc_175 ( N_noxref_2_c_171_p N_noxref_3_c_326_n ) capacitor c=0.00157744f \
 //x=10.36 //y=7.4 //x2=0.74 //y2=2.085
cc_176 ( N_noxref_2_c_166_n N_noxref_3_c_326_n ) capacitor c=0.0272385f \
 //x=0.74 //y=7.4 //x2=0.74 //y2=2.085
cc_177 ( N_noxref_2_c_167_n N_noxref_3_c_326_n ) capacitor c=0.00139956f \
 //x=2.22 //y=7.4 //x2=0.74 //y2=2.085
cc_178 ( N_noxref_2_M6_noxref_s N_noxref_3_c_326_n ) capacitor c=0.00896093f \
 //x=0.54 //y=5.02 //x2=0.74 //y2=2.085
cc_179 ( N_noxref_2_c_167_n N_noxref_3_c_331_n ) capacitor c=0.0160048f \
 //x=2.22 //y=7.4 //x2=3.33 //y2=2.085
cc_180 ( N_noxref_2_c_172_p N_noxref_3_M6_noxref_g ) capacitor c=0.00748034f \
 //x=1.47 //y=7.4 //x2=0.895 //y2=6.02
cc_181 ( N_noxref_2_c_166_n N_noxref_3_M6_noxref_g ) capacitor c=0.0241676f \
 //x=0.74 //y=7.4 //x2=0.895 //y2=6.02
cc_182 ( N_noxref_2_M6_noxref_s N_noxref_3_M6_noxref_g ) capacitor \
 c=0.0528676f //x=0.54 //y=5.02 //x2=0.895 //y2=6.02
cc_183 ( N_noxref_2_c_172_p N_noxref_3_M7_noxref_g ) capacitor c=0.00697478f \
 //x=1.47 //y=7.4 //x2=1.335 //y2=6.02
cc_184 ( N_noxref_2_M7_noxref_d N_noxref_3_M7_noxref_g ) capacitor \
 c=0.0528676f //x=1.41 //y=5.02 //x2=1.335 //y2=6.02
cc_185 ( N_noxref_2_c_174_p N_noxref_3_M8_noxref_g ) capacitor c=0.00673447f \
 //x=3.365 //y=7.4 //x2=3.23 //y2=6.02
cc_186 ( N_noxref_2_c_167_n N_noxref_3_M8_noxref_g ) capacitor c=0.00449901f \
 //x=2.22 //y=7.4 //x2=3.23 //y2=6.02
cc_187 ( N_noxref_2_M8_noxref_d N_noxref_3_M8_noxref_g ) capacitor \
 c=0.0166176f //x=3.305 //y=5.02 //x2=3.23 //y2=6.02
cc_188 ( N_noxref_2_c_193_p N_noxref_3_M9_noxref_g ) capacitor c=0.006727f \
 //x=5.38 //y=7.4 //x2=3.67 //y2=6.02
cc_189 ( N_noxref_2_M8_noxref_d N_noxref_3_M9_noxref_g ) capacitor \
 c=0.0186652f //x=3.305 //y=5.02 //x2=3.67 //y2=6.02
cc_190 ( N_noxref_2_c_167_n N_noxref_3_c_375_n ) capacitor c=0.0132667f \
 //x=2.22 //y=7.4 //x2=1.26 //y2=4.79
cc_191 ( N_noxref_2_c_166_n N_noxref_3_c_376_n ) capacitor c=0.011132f \
 //x=0.74 //y=7.4 //x2=0.97 //y2=4.79
cc_192 ( N_noxref_2_M6_noxref_s N_noxref_3_c_376_n ) capacitor c=0.00524527f \
 //x=0.54 //y=5.02 //x2=0.97 //y2=4.79
cc_193 ( N_noxref_2_c_167_n N_noxref_3_c_378_n ) capacitor c=0.0125867f \
 //x=2.22 //y=7.4 //x2=3.33 //y2=4.7
cc_194 ( N_noxref_2_c_167_n N_noxref_4_c_455_n ) capacitor c=0.00137387f \
 //x=2.22 //y=7.4 //x2=7.655 //y2=2.59
cc_195 ( N_noxref_2_c_171_p N_noxref_4_c_482_n ) capacitor c=0.0012271f \
 //x=10.36 //y=7.4 //x2=1.395 //y2=4.58
cc_196 ( N_noxref_2_c_172_p N_noxref_4_c_482_n ) capacitor c=9.08147e-19 \
 //x=1.47 //y=7.4 //x2=1.395 //y2=4.58
cc_197 ( N_noxref_2_M7_noxref_d N_noxref_4_c_482_n ) capacitor c=0.00609088f \
 //x=1.41 //y=5.02 //x2=1.395 //y2=4.58
cc_198 ( N_noxref_2_c_166_n N_noxref_4_c_485_n ) capacitor c=0.0179238f \
 //x=0.74 //y=7.4 //x2=1.2 //y2=4.58
cc_199 ( N_noxref_2_c_166_n N_noxref_4_c_470_n ) capacitor c=5.65246e-19 \
 //x=0.74 //y=7.4 //x2=1.48 //y2=2.59
cc_200 ( N_noxref_2_c_167_n N_noxref_4_c_470_n ) capacitor c=0.0220651f \
 //x=2.22 //y=7.4 //x2=1.48 //y2=2.59
cc_201 ( N_noxref_2_c_168_n N_noxref_4_c_473_n ) capacitor c=0.00210246f \
 //x=5.55 //y=7.4 //x2=7.77 //y2=2.085
cc_202 ( N_noxref_2_c_169_n N_noxref_4_c_473_n ) capacitor c=0.00147528f \
 //x=8.88 //y=7.4 //x2=7.77 //y2=2.085
cc_203 ( N_noxref_2_c_208_p N_noxref_4_M14_noxref_g ) capacitor c=0.00510247f \
 //x=8.71 //y=7.4 //x2=7.44 //y2=6.02
cc_204 ( N_noxref_2_c_208_p N_noxref_4_M15_noxref_g ) capacitor c=0.00510919f \
 //x=8.71 //y=7.4 //x2=7.88 //y2=6.02
cc_205 ( N_noxref_2_c_169_n N_noxref_4_M15_noxref_g ) capacitor c=0.00788519f \
 //x=8.88 //y=7.4 //x2=7.88 //y2=6.02
cc_206 ( N_noxref_2_c_171_p N_noxref_4_M6_noxref_d ) capacitor c=0.00285171f \
 //x=10.36 //y=7.4 //x2=0.97 //y2=5.02
cc_207 ( N_noxref_2_c_172_p N_noxref_4_M6_noxref_d ) capacitor c=0.0141332f \
 //x=1.47 //y=7.4 //x2=0.97 //y2=5.02
cc_208 ( N_noxref_2_c_167_n N_noxref_4_M6_noxref_d ) capacitor c=0.0204646f \
 //x=2.22 //y=7.4 //x2=0.97 //y2=5.02
cc_209 ( N_noxref_2_c_170_n N_noxref_4_M6_noxref_d ) capacitor c=0.00135976f \
 //x=10.36 //y=7.4 //x2=0.97 //y2=5.02
cc_210 ( N_noxref_2_M6_noxref_s N_noxref_4_M6_noxref_d ) capacitor \
 c=0.0843065f //x=0.54 //y=5.02 //x2=0.97 //y2=5.02
cc_211 ( N_noxref_2_M7_noxref_d N_noxref_4_M6_noxref_d ) capacitor \
 c=0.0832641f //x=1.41 //y=5.02 //x2=0.97 //y2=5.02
cc_212 ( N_noxref_2_c_171_p N_noxref_5_c_636_n ) capacitor c=0.00114115f \
 //x=10.36 //y=7.4 //x2=4.725 //y2=5.205
cc_213 ( N_noxref_2_c_193_p N_noxref_5_c_636_n ) capacitor c=0.00139027f \
 //x=5.38 //y=7.4 //x2=4.725 //y2=5.205
cc_214 ( N_noxref_2_c_167_n N_noxref_5_c_638_n ) capacitor c=8.9933e-19 \
 //x=2.22 //y=7.4 //x2=4.415 //y2=5.205
cc_215 ( N_noxref_2_c_167_n N_noxref_5_c_625_n ) capacitor c=0.00163766f \
 //x=2.22 //y=7.4 //x2=4.81 //y2=3.7
cc_216 ( N_noxref_2_c_168_n N_noxref_5_c_625_n ) capacitor c=0.0445615f \
 //x=5.55 //y=7.4 //x2=4.81 //y2=3.7
cc_217 ( N_noxref_2_c_171_p N_noxref_5_c_641_n ) capacitor c=0.00113725f \
 //x=10.36 //y=7.4 //x2=8.055 //y2=5.205
cc_218 ( N_noxref_2_c_208_p N_noxref_5_c_641_n ) capacitor c=0.00138968f \
 //x=8.71 //y=7.4 //x2=8.055 //y2=5.205
cc_219 ( N_noxref_2_c_168_n N_noxref_5_c_643_n ) capacitor c=8.9933e-19 \
 //x=5.55 //y=7.4 //x2=7.745 //y2=5.205
cc_220 ( N_noxref_2_c_168_n N_noxref_5_c_628_n ) capacitor c=0.00177938f \
 //x=5.55 //y=7.4 //x2=8.14 //y2=3.7