// File: xor2X1_pcell.spi.pex
// Created: Tue Oct 15 16:01:28 2024
// Program "Calibre xRC"
// Version "v2023.2_27.15"
// Nominal Temperature: 30C
// Circuit Temperature: 30C
// 
simulator lang=spectre
subckt PM_XOR2X1_PCELL\%noxref_1 ( 19 31 35 38 43 49 55 61 69 77 80 85 89 101 \
 112 115 117 124 131 132 133 134 )
c165 ( 134 0 ) capacitor c=0.0583152f //x=9.375 //y=0.37
c166 ( 133 0 ) capacitor c=0.0210151f //x=6.54 //y=0.87
c167 ( 132 0 ) capacitor c=0.0210151f //x=3.21 //y=0.87
c168 ( 131 0 ) capacitor c=0.0582156f //x=0.495 //y=0.37
c169 ( 124 0 ) capacitor c=0.229233f //x=10.47 //y=0
c170 ( 117 0 ) capacitor c=0.103612f //x=8.88 //y=0
c171 ( 116 0 ) capacitor c=0.0044012f //x=6.73 //y=0
c172 ( 115 0 ) capacitor c=0.104587f //x=5.55 //y=0
c173 ( 114 0 ) capacitor c=0.0044012f //x=3.33 //y=0
c174 ( 112 0 ) capacitor c=0.102385f //x=2.22 //y=0
c175 ( 101 0 ) capacitor c=0.192508f //x=0.63 //y=0
c176 ( 92 0 ) capacitor c=0.00592191f //x=10.47 //y=0.45
c177 ( 89 0 ) capacitor c=0.00644318f //x=10.385 //y=0.535
c178 ( 88 0 ) capacitor c=0.00479856f //x=9.985 //y=0.45
c179 ( 85 0 ) capacitor c=0.00531808f //x=9.9 //y=0.535
c180 ( 80 0 ) capacitor c=0.00587411f //x=9.5 //y=0.45
c181 ( 77 0 ) capacitor c=0.0160123f //x=9.415 //y=0
c182 ( 69 0 ) capacitor c=0.0720515f //x=8.71 //y=0
c183 ( 61 0 ) capacitor c=0.0389232f //x=6.645 //y=0
c184 ( 55 0 ) capacitor c=0.072035f //x=5.38 //y=0
c185 ( 49 0 ) capacitor c=0.0389232f //x=3.315 //y=0
c186 ( 44 0 ) capacitor c=0.0360673f //x=1.685 //y=0
c187 ( 43 0 ) capacitor c=0.0160123f //x=2.05 //y=0
c188 ( 38 0 ) capacitor c=0.00587411f //x=1.6 //y=0.45
c189 ( 35 0 ) capacitor c=0.00534353f //x=1.515 //y=0.535
c190 ( 34 0 ) capacitor c=0.00479856f //x=1.115 //y=0.45
c191 ( 31 0 ) capacitor c=0.00707849f //x=1.03 //y=0.535
c192 ( 26 0 ) capacitor c=0.00592191f //x=0.63 //y=0.45
c193 ( 19 0 ) capacitor c=0.388313f //x=10.36 //y=0
r194 (  123 124 ) resistor r=3.94398 //w=0.357 //l=0.11 //layer=li \
 //thickness=0.1 //x=10.36 //y=0 //x2=10.47 //y2=0
r195 (  121 123 ) resistor r=13.4454 //w=0.357 //l=0.375 //layer=li \
 //thickness=0.1 //x=9.985 //y=0 //x2=10.36 //y2=0
r196 (  120 121 ) resistor r=13.0868 //w=0.357 //l=0.365 //layer=li \
 //thickness=0.1 //x=9.62 //y=0 //x2=9.985 //y2=0
r197 (  118 120 ) resistor r=4.30252 //w=0.357 //l=0.12 //layer=li \
 //thickness=0.1 //x=9.5 //y=0 //x2=9.62 //y2=0
r198 (  104 105 ) resistor r=17.3894 //w=0.357 //l=0.485 //layer=li \
 //thickness=0.1 //x=1.115 //y=0 //x2=1.6 //y2=0
r199 (  103 104 ) resistor r=13.4454 //w=0.357 //l=0.375 //layer=li \
 //thickness=0.1 //x=0.74 //y=0 //x2=1.115 //y2=0
r200 (  101 103 ) resistor r=3.94398 //w=0.357 //l=0.11 //layer=li \
 //thickness=0.1 //x=0.63 //y=0 //x2=0.74 //y2=0
r201 (  93 134 ) resistor r=5.4201 //w=0.17 //l=0.085 //layer=li \
 //thickness=0.1 //x=10.47 //y=0.62 //x2=10.47 //y2=0.535
r202 (  93 134 ) resistor r=41.4118 //w=0.187 //l=0.605 //layer=li \
 //thickness=0.1 //x=10.47 //y=0.62 //x2=10.47 //y2=1.225
r203 (  92 134 ) resistor r=5.4201 //w=0.17 //l=0.085 //layer=li \
 //thickness=0.1 //x=10.47 //y=0.45 //x2=10.47 //y2=0.535
r204 (  91 124 ) resistor r=5.03728 //w=0.34 //l=0.17 //layer=li \
 //thickness=0.1 //x=10.47 //y=0.17 //x2=10.47 //y2=0
r205 (  91 92 ) resistor r=19.1658 //w=0.187 //l=0.28 //layer=li \
 //thickness=0.1 //x=10.47 //y=0.17 //x2=10.47 //y2=0.45
r206 (  90 134 ) resistor r=5.4201 //w=0.17 //l=0.085 //layer=li \
 //thickness=0.1 //x=10.07 //y=0.535 //x2=9.985 //y2=0.535
r207 (  89 134 ) resistor r=1.40859 //w=0.34 //l=0.085 //layer=li \
 //thickness=0.1 //x=10.385 //y=0.535 //x2=10.47 //y2=0.535
r208 (  89 90 ) resistor r=21.5615 //w=0.187 //l=0.315 //layer=li \
 //thickness=0.1 //x=10.385 //y=0.535 //x2=10.07 //y2=0.535
r209 (  88 134 ) resistor r=1.40859 //w=0.34 //l=0.085 //layer=li \
 //thickness=0.1 //x=9.985 //y=0.45 //x2=9.985 //y2=0.535
r210 (  87 121 ) resistor r=5.03728 //w=0.34 //l=0.17 //layer=li \
 //thickness=0.1 //x=9.985 //y=0.17 //x2=9.985 //y2=0
r211 (  87 88 ) resistor r=19.1658 //w=0.187 //l=0.28 //layer=li \
 //thickness=0.1 //x=9.985 //y=0.17 //x2=9.985 //y2=0.45
r212 (  86 134 ) resistor r=1.40859 //w=0.34 //l=0.085 //layer=li \
 //thickness=0.1 //x=9.585 //y=0.535 //x2=9.5 //y2=0.535
r213 (  85 134 ) resistor r=5.4201 //w=0.17 //l=0.085 //layer=li \
 //thickness=0.1 //x=9.9 //y=0.535 //x2=9.985 //y2=0.535
r214 (  85 86 ) resistor r=21.5615 //w=0.187 //l=0.315 //layer=li \
 //thickness=0.1 //x=9.9 //y=0.535 //x2=9.585 //y2=0.535
r215 (  81 134 ) resistor r=5.4201 //w=0.17 //l=0.085 //layer=li \
 //thickness=0.1 //x=9.5 //y=0.62 //x2=9.5 //y2=0.535
r216 (  81 134 ) resistor r=41.4118 //w=0.187 //l=0.605 //layer=li \
 //thickness=0.1 //x=9.5 //y=0.62 //x2=9.5 //y2=1.225
r217 (  80 134 ) resistor r=5.4201 //w=0.17 //l=0.085 //layer=li \
 //thickness=0.1 //x=9.5 //y=0.45 //x2=9.5 //y2=0.535
r218 (  79 118 ) resistor r=5.03728 //w=0.34 //l=0.17 //layer=li \
 //thickness=0.1 //x=9.5 //y=0.17 //x2=9.5 //y2=0
r219 (  79 80 ) resistor r=19.1658 //w=0.187 //l=0.28 //layer=li \
 //thickness=0.1 //x=9.5 //y=0.17 //x2=9.5 //y2=0.45
r220 (  78 117 ) resistor r=5.4201 //w=0.34 //l=0.17 //layer=li \
 //thickness=0.1 //x=9.05 //y=0 //x2=8.88 //y2=0
r221 (  77 118 ) resistor r=3.04762 //w=0.357 //l=0.085 //layer=li \
 //thickness=0.1 //x=9.415 //y=0 //x2=9.5 //y2=0
r222 (  77 78 ) resistor r=13.0868 //w=0.357 //l=0.365 //layer=li \
 //thickness=0.1 //x=9.415 //y=0 //x2=9.05 //y2=0
r223 (  72 74 ) resistor r=39.7983 //w=0.357 //l=1.11 //layer=li \
 //thickness=0.1 //x=7.03 //y=0 //x2=8.14 //y2=0
r224 (  70 116 ) resistor r=2.94794 //w=0.34 //l=0.085 //layer=li \
 //thickness=0.1 //x=6.815 //y=0 //x2=6.73 //y2=0
r225 (  70 72 ) resistor r=7.70868 //w=0.357 //l=0.215 //layer=li \
 //thickness=0.1 //x=6.815 //y=0 //x2=7.03 //y2=0
r226 (  69 117 ) resistor r=5.4201 //w=0.34 //l=0.17 //layer=li \
 //thickness=0.1 //x=8.71 //y=0 //x2=8.88 //y2=0
r227 (  69 74 ) resistor r=20.437 //w=0.357 //l=0.57 //layer=li \
 //thickness=0.1 //x=8.71 //y=0 //x2=8.14 //y2=0
r228 (  65 116 ) resistor r=4.11603 //w=0.68 //l=0.17 //layer=li \
 //thickness=0.1 //x=6.73 //y=0.17 //x2=6.73 //y2=0
r229 (  65 133 ) resistor r=54.0749 //w=0.187 //l=0.79 //layer=li \
 //thickness=0.1 //x=6.73 //y=0.17 //x2=6.73 //y2=0.96
r230 (  62 115 ) resistor r=5.4201 //w=0.34 //l=0.17 //layer=li \
 //thickness=0.1 //x=5.72 //y=0 //x2=5.55 //y2=0
r231 (  62 64 ) resistor r=7.17087 //w=0.357 //l=0.2 //layer=li \
 //thickness=0.1 //x=5.72 //y=0 //x2=5.92 //y2=0
r232 (  61 116 ) resistor r=2.94794 //w=0.34 //l=0.085 //layer=li \
 //thickness=0.1 //x=6.645 //y=0 //x2=6.73 //y2=0
r233 (  61 64 ) resistor r=25.9944 //w=0.357 //l=0.725 //layer=li \
 //thickness=0.1 //x=6.645 //y=0 //x2=5.92 //y2=0
r234 (  56 114 ) resistor r=2.94794 //w=0.34 //l=0.085 //layer=li \
 //thickness=0.1 //x=3.485 //y=0 //x2=3.4 //y2=0
r235 (  56 58 ) resistor r=34.2409 //w=0.357 //l=0.955 //layer=li \
 //thickness=0.1 //x=3.485 //y=0 //x2=4.44 //y2=0
r236 (  55 115 ) resistor r=5.4201 //w=0.34 //l=0.17 //layer=li \
 //thickness=0.1 //x=5.38 //y=0 //x2=5.55 //y2=0
r237 (  55 58 ) resistor r=33.7031 //w=0.357 //l=0.94 //layer=li \
 //thickness=0.1 //x=5.38 //y=0 //x2=4.44 //y2=0
r238 (  51 114 ) resistor r=4.11603 //w=0.68 //l=0.17 //layer=li \
 //thickness=0.1 //x=3.4 //y=0.17 //x2=3.4 //y2=0
r239 (  51 132 ) resistor r=54.0749 //w=0.187 //l=0.79 //layer=li \
 //thickness=0.1 //x=3.4 //y=0.17 //x2=3.4 //y2=0.96
r240 (  50 112 ) resistor r=5.4201 //w=0.34 //l=0.17 //layer=li \
 //thickness=0.1 //x=2.39 //y=0 //x2=2.22 //y2=0
r241 (  49 114 ) resistor r=2.94794 //w=0.34 //l=0.085 //layer=li \
 //thickness=0.1 //x=3.315 //y=0 //x2=3.4 //y2=0
r242 (  49 50 ) resistor r=33.1653 //w=0.357 //l=0.925 //layer=li \
 //thickness=0.1 //x=3.315 //y=0 //x2=2.39 //y2=0
r243 (  44 105 ) resistor r=3.04762 //w=0.357 //l=0.085 //layer=li \
 //thickness=0.1 //x=1.685 //y=0 //x2=1.6 //y2=0
r244 (  44 46 ) resistor r=5.91597 //w=0.357 //l=0.165 //layer=li \
 //thickness=0.1 //x=1.685 //y=0 //x2=1.85 //y2=0
r245 (  43 112 ) resistor r=5.4201 //w=0.34 //l=0.17 //layer=li \
 //thickness=0.1 //x=2.05 //y=0 //x2=2.22 //y2=0
r246 (  43 46 ) resistor r=7.17087 //w=0.357 //l=0.2 //layer=li \
 //thickness=0.1 //x=2.05 //y=0 //x2=1.85 //y2=0
r247 (  39 131 ) resistor r=5.4201 //w=0.17 //l=0.085 //layer=li \
 //thickness=0.1 //x=1.6 //y=0.62 //x2=1.6 //y2=0.535
r248 (  39 131 ) resistor r=41.4118 //w=0.187 //l=0.605 //layer=li \
 //thickness=0.1 //x=1.6 //y=0.62 //x2=1.6 //y2=1.225
r249 (  38 131 ) resistor r=5.4201 //w=0.17 //l=0.085 //layer=li \
 //thickness=0.1 //x=1.6 //y=0.45 //x2=1.6 //y2=0.535
r250 (  37 105 ) resistor r=5.03728 //w=0.34 //l=0.17 //layer=li \
 //thickness=0.1 //x=1.6 //y=0.17 //x2=1.6 //y2=0
r251 (  37 38 ) resistor r=19.1658 //w=0.187 //l=0.28 //layer=li \
 //thickness=0.1 //x=1.6 //y=0.17 //x2=1.6 //y2=0.45
r252 (  36 131 ) resistor r=5.4201 //w=0.17 //l=0.085 //layer=li \
 //thickness=0.1 //x=1.2 //y=0.535 //x2=1.115 //y2=0.535
r253 (  35 131 ) resistor r=1.40859 //w=0.34 //l=0.085 //layer=li \
 //thickness=0.1 //x=1.515 //y=0.535 //x2=1.6 //y2=0.535
r254 (  35 36 ) resistor r=21.5615 //w=0.187 //l=0.315 //layer=li \
 //thickness=0.1 //x=1.515 //y=0.535 //x2=1.2 //y2=0.535
r255 (  34 131 ) resistor r=1.40859 //w=0.34 //l=0.085 //layer=li \
 //thickness=0.1 //x=1.115 //y=0.45 //x2=1.115 //y2=0.535
r256 (  33 104 ) resistor r=5.03728 //w=0.34 //l=0.17 //layer=li \
 //thickness=0.1 //x=1.115 //y=0.17 //x2=1.115 //y2=0
r257 (  33 34 ) resistor r=19.1658 //w=0.187 //l=0.28 //layer=li \
 //thickness=0.1 //x=1.115 //y=0.17 //x2=1.115 //y2=0.45
r258 (  32 131 ) resistor r=1.40859 //w=0.34 //l=0.085 //layer=li \
 //thickness=0.1 //x=0.715 //y=0.535 //x2=0.63 //y2=0.535
r259 (  31 131 ) resistor r=5.4201 //w=0.17 //l=0.085 //layer=li \
 //thickness=0.1 //x=1.03 //y=0.535 //x2=1.115 //y2=0.535
r260 (  31 32 ) resistor r=21.5615 //w=0.187 //l=0.315 //layer=li \
 //thickness=0.1 //x=1.03 //y=0.535 //x2=0.715 //y2=0.535
r261 (  27 131 ) resistor r=5.4201 //w=0.17 //l=0.085 //layer=li \
 //thickness=0.1 //x=0.63 //y=0.62 //x2=0.63 //y2=0.535
r262 (  27 131 ) resistor r=41.4118 //w=0.187 //l=0.605 //layer=li \
 //thickness=0.1 //x=0.63 //y=0.62 //x2=0.63 //y2=1.225
r263 (  26 131 ) resistor r=5.4201 //w=0.17 //l=0.085 //layer=li \
 //thickness=0.1 //x=0.63 //y=0.45 //x2=0.63 //y2=0.535
r264 (  25 101 ) resistor r=5.03728 //w=0.34 //l=0.17 //layer=li \
 //thickness=0.1 //x=0.63 //y=0.17 //x2=0.63 //y2=0
r265 (  25 26 ) resistor r=19.1658 //w=0.187 //l=0.28 //layer=li \
 //thickness=0.1 //x=0.63 //y=0.17 //x2=0.63 //y2=0.45
r266 (  19 123 ) resistor r=4.65 //w=0.17 //l=0.34 //layer=mcon //count=2 \
 //x=10.36 //y=0 //x2=10.36 //y2=0
r267 (  17 120 ) resistor r=3.1 //w=0.17 //l=0.51 //layer=mcon //count=3 \
 //x=9.62 //y=0 //x2=9.62 //y2=0
r268 (  17 19 ) resistor r=0.307309 //w=0.301 //l=0.74 //layer=m1 \
 //thickness=0.36 //x=9.62 //y=0 //x2=10.36 //y2=0
r269 (  15 74 ) resistor r=3.1 //w=0.17 //l=0.51 //layer=mcon //count=3 \
 //x=8.14 //y=0 //x2=8.14 //y2=0
r270 (  15 17 ) resistor r=0.614618 //w=0.301 //l=1.48 //layer=m1 \
 //thickness=0.36 //x=8.14 //y=0 //x2=9.62 //y2=0
r271 (  13 72 ) resistor r=3.1 //w=0.17 //l=0.51 //layer=mcon //count=3 \
 //x=7.03 //y=0 //x2=7.03 //y2=0
r272 (  13 15 ) resistor r=0.460963 //w=0.301 //l=1.11 //layer=m1 \
 //thickness=0.36 //x=7.03 //y=0 //x2=8.14 //y2=0
r273 (  11 64 ) resistor r=3.1 //w=0.17 //l=0.51 //layer=mcon //count=3 \
 //x=5.92 //y=0 //x2=5.92 //y2=0
r274 (  11 13 ) resistor r=0.460963 //w=0.301 //l=1.11 //layer=m1 \
 //thickness=0.36 //x=5.92 //y=0 //x2=7.03 //y2=0
r275 (  9 58 ) resistor r=3.1 //w=0.17 //l=0.51 //layer=mcon //count=3 \
 //x=4.44 //y=0 //x2=4.44 //y2=0
r276 (  9 11 ) resistor r=0.614618 //w=0.301 //l=1.48 //layer=m1 \
 //thickness=0.36 //x=4.44 //y=0 //x2=5.92 //y2=0
r277 (  7 114 ) resistor r=3.1 //w=0.17 //l=0.51 //layer=mcon //count=3 \
 //x=3.33 //y=0 //x2=3.33 //y2=0
r278 (  7 9 ) resistor r=0.460963 //w=0.301 //l=1.11 //layer=m1 \
 //thickness=0.36 //x=3.33 //y=0 //x2=4.44 //y2=0
r279 (  5 46 ) resistor r=3.1 //w=0.17 //l=0.51 //layer=mcon //count=3 \
 //x=1.85 //y=0 //x2=1.85 //y2=0
r280 (  5 7 ) resistor r=0.614618 //w=0.301 //l=1.48 //layer=m1 \
 //thickness=0.36 //x=1.85 //y=0 //x2=3.33 //y2=0
r281 (  2 103 ) resistor r=3.1 //w=0.17 //l=0.51 //layer=mcon //count=3 \
 //x=0.74 //y=0 //x2=0.74 //y2=0
r282 (  2 5 ) resistor r=0.460963 //w=0.301 //l=1.11 //layer=m1 \
 //thickness=0.36 //x=0.74 //y=0 //x2=1.85 //y2=0
ends PM_XOR2X1_PCELL\%noxref_1

subckt PM_XOR2X1_PCELL\%noxref_2 ( 19 31 39 45 53 59 67 75 83 96 98 100 102 \
 106 107 108 109 110 111 112 )
c156 ( 112 0 ) capacitor c=0.0420685f //x=10.28 //y=5.02
c157 ( 111 0 ) capacitor c=0.0433633f //x=9.42 //y=5.02
c158 ( 110 0 ) capacitor c=0.0266033f //x=6.635 //y=5.02
c159 ( 109 0 ) capacitor c=0.0265296f //x=3.305 //y=5.02
c160 ( 108 0 ) capacitor c=0.0432963f //x=1.41 //y=5.02
c161 ( 107 0 ) capacitor c=0.0421443f //x=0.54 //y=5.02
c162 ( 106 0 ) capacitor c=0.232571f //x=10.36 //y=7.4
c163 ( 104 0 ) capacitor c=0.00591168f //x=9.62 //y=7.4
c164 ( 102 0 ) capacitor c=0.105702f //x=8.88 //y=7.4
c165 ( 101 0 ) capacitor c=0.00591168f //x=6.78 //y=7.4
c166 ( 100 0 ) capacitor c=0.111763f //x=5.55 //y=7.4
c167 ( 99 0 ) capacitor c=0.00591168f //x=3.45 //y=7.4
c168 ( 98 0 ) capacitor c=0.111559f //x=2.22 //y=7.4
c169 ( 97 0 ) capacitor c=0.00591168f //x=1.555 //y=7.4
c170 ( 96 0 ) capacitor c=0.232987f //x=0.74 //y=7.4
c171 ( 83 0 ) capacitor c=0.0289356f //x=10.34 //y=7.4
c172 ( 75 0 ) capacitor c=0.0181526f //x=9.46 //y=7.4
c173 ( 67 0 ) capacitor c=0.0747638f //x=8.71 //y=7.4
c174 ( 59 0 ) capacitor c=0.042882f //x=6.695 //y=7.4
c175 ( 53 0 ) capacitor c=0.074629f //x=5.38 //y=7.4
c176 ( 45 0 ) capacitor c=0.042884f //x=3.365 //y=7.4
c177 ( 39 0 ) capacitor c=0.0181526f //x=2.05 //y=7.4
c178 ( 31 0 ) capacitor c=0.0291066f //x=1.47 //y=7.4
c179 ( 19 0 ) capacitor c=0.40033f //x=10.36 //y=7.4
r180 (  85 106 ) resistor r=4.11603 //w=0.68 //l=0.17 //layer=li \
 //thickness=0.1 //x=10.425 //y=7.23 //x2=10.425 //y2=7.4
r181 (  85 112 ) resistor r=56.4706 //w=0.187 //l=0.825 //layer=li \
 //thickness=0.1 //x=10.425 //y=7.23 //x2=10.425 //y2=6.405
r182 (  84 104 ) resistor r=2.94794 //w=0.34 //l=0.085 //layer=li \
 //thickness=0.1 //x=9.63 //y=7.4 //x2=9.545 //y2=7.4
r183 (  83 106 ) resistor r=2.94794 //w=0.34 //l=0.085 //layer=li \
 //thickness=0.1 //x=10.34 //y=7.4 //x2=10.425 //y2=7.4
r184 (  83 84 ) resistor r=25.4566 //w=0.357 //l=0.71 //layer=li \
 //thickness=0.1 //x=10.34 //y=7.4 //x2=9.63 //y2=7.4
r185 (  77 104 ) resistor r=4.11603 //w=0.68 //l=0.17 //layer=li \
 //thickness=0.1 //x=9.545 //y=7.23 //x2=9.545 //y2=7.4
r186 (  77 111 ) resistor r=56.4706 //w=0.187 //l=0.825 //layer=li \
 //thickness=0.1 //x=9.545 //y=7.23 //x2=9.545 //y2=6.405
r187 (  76 102 ) resistor r=5.4201 //w=0.34 //l=0.17 //layer=li \
 //thickness=0.1 //x=9.05 //y=7.4 //x2=8.88 //y2=7.4
r188 (  75 104 ) resistor r=2.94794 //w=0.34 //l=0.085 //layer=li \
 //thickness=0.1 //x=9.46 //y=7.4 //x2=9.545 //y2=7.4
r189 (  75 76 ) resistor r=14.7003 //w=0.357 //l=0.41 //layer=li \
 //thickness=0.1 //x=9.46 //y=7.4 //x2=9.05 //y2=7.4
r190 (  70 72 ) resistor r=39.7983 //w=0.357 //l=1.11 //layer=li \
 //thickness=0.1 //x=7.03 //y=7.4 //x2=8.14 //y2=7.4
r191 (  68 101 ) resistor r=2.94794 //w=0.34 //l=0.085 //layer=li \
 //thickness=0.1 //x=6.865 //y=7.4 //x2=6.78 //y2=7.4
r192 (  68 70 ) resistor r=5.91597 //w=0.357 //l=0.165 //layer=li \
 //thickness=0.1 //x=6.865 //y=7.4 //x2=7.03 //y2=7.4
r193 (  67 102 ) resistor r=5.4201 //w=0.34 //l=0.17 //layer=li \
 //thickness=0.1 //x=8.71 //y=7.4 //x2=8.88 //y2=7.4
r194 (  67 72 ) resistor r=20.437 //w=0.357 //l=0.57 //layer=li \
 //thickness=0.1 //x=8.71 //y=7.4 //x2=8.14 //y2=7.4
r195 (  63 101 ) resistor r=4.11603 //w=0.68 //l=0.17 //layer=li \
 //thickness=0.1 //x=6.78 //y=7.23 //x2=6.78 //y2=7.4
r196 (  63 110 ) resistor r=80.4278 //w=0.187 //l=1.175 //layer=li \
 //thickness=0.1 //x=6.78 //y=7.23 //x2=6.78 //y2=6.055
r197 (  60 100 ) resistor r=5.4201 //w=0.34 //l=0.17 //layer=li \
 //thickness=0.1 //x=5.72 //y=7.4 //x2=5.55 //y2=7.4
r198 (  60 62 ) resistor r=7.17087 //w=0.357 //l=0.2 //layer=li \
 //thickness=0.1 //x=5.72 //y=7.4 //x2=5.92 //y2=7.4
r199 (  59 101 ) resistor r=2.94794 //w=0.34 //l=0.085 //layer=li \
 //thickness=0.1 //x=6.695 //y=7.4 //x2=6.78 //y2=7.4
r200 (  59 62 ) resistor r=27.7871 //w=0.357 //l=0.775 //layer=li \
 //thickness=0.1 //x=6.695 //y=7.4 //x2=5.92 //y2=7.4
r201 (  54 99 ) resistor r=2.94794 //w=0.34 //l=0.085 //layer=li \
 //thickness=0.1 //x=3.535 //y=7.4 //x2=3.45 //y2=7.4
r202 (  54 56 ) resistor r=32.4482 //w=0.357 //l=0.905 //layer=li \
 //thickness=0.1 //x=3.535 //y=7.4 //x2=4.44 //y2=7.4
r203 (  53 100 ) resistor r=5.4201 //w=0.34 //l=0.17 //layer=li \
 //thickness=0.1 //x=5.38 //y=7.4 //x2=5.55 //y2=7.4
r204 (  53 56 ) resistor r=33.7031 //w=0.357 //l=0.94 //layer=li \
 //thickness=0.1 //x=5.38 //y=7.4 //x2=4.44 //y2=7.4
r205 (  49 99 ) resistor r=4.11603 //w=0.68 //l=0.17 //layer=li \
 //thickness=0.1 //x=3.45 //y=7.23 //x2=3.45 //y2=7.4
r206 (  49 109 ) resistor r=80.4278 //w=0.187 //l=1.175 //layer=li \
 //thickness=0.1 //x=3.45 //y=7.23 //x2=3.45 //y2=6.055
r207 (  46 98 ) resistor r=5.4201 //w=0.34 //l=0.17 //layer=li //thickness=0.1 \
 //x=2.39 //y=7.4 //x2=2.22 //y2=7.4
r208 (  46 48 ) resistor r=33.7031 //w=0.357 //l=0.94 //layer=li \
 //thickness=0.1 //x=2.39 //y=7.4 //x2=3.33 //y2=7.4
r209 (  45 99 ) resistor r=2.94794 //w=0.34 //l=0.085 //layer=li \
 //thickness=0.1 //x=3.365 //y=7.4 //x2=3.45 //y2=7.4
r210 (  45 48 ) resistor r=1.2549 //w=0.357 //l=0.035 //layer=li \
 //thickness=0.1 //x=3.365 //y=7.4 //x2=3.33 //y2=7.4
r211 (  40 97 ) resistor r=2.94794 //w=0.34 //l=0.085 //layer=li \
 //thickness=0.1 //x=1.64 //y=7.4 //x2=1.555 //y2=7.4
r212 (  40 42 ) resistor r=7.52941 //w=0.357 //l=0.21 //layer=li \
 //thickness=0.1 //x=1.64 //y=7.4 //x2=1.85 //y2=7.4
r213 (  39 98 ) resistor r=5.4201 //w=0.34 //l=0.17 //layer=li //thickness=0.1 \
 //x=2.05 //y=7.4 //x2=2.22 //y2=7.4
r214 (  39 42 ) resistor r=7.17087 //w=0.357 //l=0.2 //layer=li \
 //thickness=0.1 //x=2.05 //y=7.4 //x2=1.85 //y2=7.4
r215 (  33 97 ) resistor r=4.11603 //w=0.68 //l=0.17 //layer=li \
 //thickness=0.1 //x=1.555 //y=7.23 //x2=1.555 //y2=7.4
r216 (  33 108 ) resistor r=56.4706 //w=0.187 //l=0.825 //layer=li \
 //thickness=0.1 //x=1.555 //y=7.23 //x2=1.555 //y2=6.405
r217 (  32 96 ) resistor r=2.94794 //w=0.34 //l=0.085 //layer=li \
 //thickness=0.1 //x=0.76 //y=7.4 //x2=0.675 //y2=7.4
r218 (  31 97 ) resistor r=2.94794 //w=0.34 //l=0.085 //layer=li \
 //thickness=0.1 //x=1.47 //y=7.4 //x2=1.555 //y2=7.4
r219 (  31 32 ) resistor r=25.4566 //w=0.357 //l=0.71 //layer=li \
 //thickness=0.1 //x=1.47 //y=7.4 //x2=0.76 //y2=7.4
r220 (  25 96 ) resistor r=4.11603 //w=0.68 //l=0.17 //layer=li \
 //thickness=0.1 //x=0.675 //y=7.23 //x2=0.675 //y2=7.4
r221 (  25 107 ) resistor r=56.4706 //w=0.187 //l=0.825 //layer=li \
 //thickness=0.1 //x=0.675 //y=7.23 //x2=0.675 //y2=6.405
r222 (  19 106 ) resistor r=4.65 //w=0.17 //l=0.34 //layer=mcon //count=2 \
 //x=10.36 //y=7.4 //x2=10.36 //y2=7.4
r223 (  17 104 ) resistor r=3.1 //w=0.17 //l=0.51 //layer=mcon //count=3 \
 //x=9.62 //y=7.4 //x2=9.62 //y2=7.4
r224 (  17 19 ) resistor r=0.307309 //w=0.301 //l=0.74 //layer=m1 \
 //thickness=0.36 //x=9.62 //y=7.4 //x2=10.36 //y2=7.4
r225 (  15 72 ) resistor r=3.1 //w=0.17 //l=0.51 //layer=mcon //count=3 \
 //x=8.14 //y=7.4 //x2=8.14 //y2=7.4
r226 (  15 17 ) resistor r=0.614618 //w=0.301 //l=1.48 //layer=m1 \
 //thickness=0.36 //x=8.14 //y=7.4 //x2=9.62 //y2=7.4
r227 (  13 70 ) resistor r=3.1 //w=0.17 //l=0.51 //layer=mcon //count=3 \
 //x=7.03 //y=7.4 //x2=7.03 //y2=7.4
r228 (  13 15 ) resistor r=0.460963 //w=0.301 //l=1.11 //layer=m1 \
 //thickness=0.36 //x=7.03 //y=7.4 //x2=8.14 //y2=7.4
r229 (  11 62 ) resistor r=3.1 //w=0.17 //l=0.51 //layer=mcon //count=3 \
 //x=5.92 //y=7.4 //x2=5.92 //y2=7.4
r230 (  11 13 ) resistor r=0.460963 //w=0.301 //l=1.11 //layer=m1 \
 //thickness=0.36 //x=5.92 //y=7.4 //x2=7.03 //y2=7.4
r231 (  9 56 ) resistor r=3.1 //w=0.17 //l=0.51 //layer=mcon //count=3 \
 //x=4.44 //y=7.4 //x2=4.44 //y2=7.4
r232 (  9 11 ) resistor r=0.614618 //w=0.301 //l=1.48 //layer=m1 \
 //thickness=0.36 //x=4.44 //y=7.4 //x2=5.92 //y2=7.4
r233 (  7 48 ) resistor r=3.1 //w=0.17 //l=0.51 //layer=mcon //count=3 \
 //x=3.33 //y=7.4 //x2=3.33 //y2=7.4
r234 (  7 9 ) resistor r=0.460963 //w=0.301 //l=1.11 //layer=m1 \
 //thickness=0.36 //x=3.33 //y=7.4 //x2=4.44 //y2=7.4
r235 (  5 42 ) resistor r=3.1 //w=0.17 //l=0.51 //layer=mcon //count=3 \
 //x=1.85 //y=7.4 //x2=1.85 //y2=7.4
r236 (  5 7 ) resistor r=0.614618 //w=0.301 //l=1.48 //layer=m1 \
 //thickness=0.36 //x=1.85 //y=7.4 //x2=3.33 //y2=7.4
r237 (  2 96 ) resistor r=3.1 //w=0.17 //l=0.51 //layer=mcon //count=3 \
 //x=0.74 //y=7.4 //x2=0.74 //y2=7.4
r238 (  2 5 ) resistor r=0.460963 //w=0.301 //l=1.11 //layer=m1 \
 //thickness=0.36 //x=0.74 //y=7.4 //x2=1.85 //y2=7.4
ends PM_XOR2X1_PCELL\%noxref_2

subckt PM_XOR2X1_PCELL\%noxref_3 ( 1 2 8 16 23 24 25 26 27 28 29 30 31 32 36 \
 37 38 40 46 47 48 49 50 51 55 57 60 61 66 80 )
c133 ( 80 0 ) capacitor c=0.0661295f //x=3.33 //y=4.7
c134 ( 66 0 ) capacitor c=0.0537799f //x=0.74 //y=2.085
c135 ( 61 0 ) capacitor c=0.0318948f //x=3.665 //y=1.215
c136 ( 60 0 ) capacitor c=0.0187407f //x=3.665 //y=0.87
c137 ( 57 0 ) capacitor c=0.0141798f //x=3.51 //y=1.37
c138 ( 55 0 ) capacitor c=0.0149852f //x=3.51 //y=0.715
c139 ( 51 0 ) capacitor c=0.0836807f //x=3.135 //y=1.92
c140 ( 50 0 ) capacitor c=0.0229722f //x=3.135 //y=1.525
c141 ( 49 0 ) capacitor c=0.0234352f //x=3.135 //y=1.215
c142 ( 48 0 ) capacitor c=0.0199366f //x=3.135 //y=0.87
c143 ( 47 0 ) capacitor c=0.0435629f //x=1.38 //y=1.255
c144 ( 46 0 ) capacitor c=0.0200386f //x=1.38 //y=0.91
c145 ( 40 0 ) capacitor c=0.0152946f //x=1.225 //y=1.41
c146 ( 38 0 ) capacitor c=0.0157804f //x=1.225 //y=0.755
c147 ( 37 0 ) capacitor c=0.048995f //x=0.97 //y=4.79
c148 ( 36 0 ) capacitor c=0.0303096f //x=1.26 //y=4.79
c149 ( 32 0 ) capacitor c=0.0290017f //x=0.85 //y=1.92
c150 ( 31 0 ) capacitor c=0.0250027f //x=0.85 //y=1.565
c151 ( 30 0 ) capacitor c=0.0234316f //x=0.85 //y=1.255
c152 ( 29 0 ) capacitor c=0.0200596f //x=0.85 //y=0.91
c153 ( 28 0 ) capacitor c=0.110797f //x=3.67 //y=6.02
c154 ( 27 0 ) capacitor c=0.154322f //x=3.23 //y=6.02
c155 ( 26 0 ) capacitor c=0.154218f //x=1.335 //y=6.02
c156 ( 25 0 ) capacitor c=0.154243f //x=0.895 //y=6.02
c157 ( 16 0 ) capacitor c=0.109612f //x=3.33 //y=2.085
c158 ( 8 0 ) capacitor c=0.11095f //x=0.74 //y=2.085
c159 ( 2 0 ) capacitor c=0.0144527f //x=0.855 //y=4.07
c160 ( 1 0 ) capacitor c=0.0971867f //x=3.215 //y=4.07
r161 (  78 80 ) resistor r=20.6867 //w=0.233 //l=0.1 //layer=ply \
 //thickness=0.18 //x=3.23 //y=4.7 //x2=3.33 //y2=4.7
r162 (  66 67 ) resistor r=17.5563 //w=0.302 //l=0.11 //layer=ply \
 //thickness=0.18 //x=0.74 //y=2.085 //x2=0.85 //y2=2.085
r163 (  62 80 ) resistor r=70.3348 //w=0.233 //l=0.414367 //layer=ply \
 //thickness=0.18 //x=3.67 //y=4.865 //x2=3.33 //y2=4.7
r164 (  61 82 ) resistor r=45.1352 //w=0.168 //l=0.173853 //layer=ply \
 //thickness=0.18 //x=3.665 //y=1.215 //x2=3.625 //y2=1.37
r165 (  60 81 ) resistor r=45.1352 //w=0.168 //l=0.173853 //layer=ply \
 //thickness=0.18 //x=3.665 //y=0.87 //x2=3.625 //y2=0.715
r166 (  60 61 ) resistor r=176.904 //w=0.094 //l=0.345 //layer=ply \
 //thickness=0.18 //x=3.665 //y=0.87 //x2=3.665 //y2=1.215
r167 (  58 77 ) resistor r=10.701 //w=0.21 //l=0.115 //layer=ply \
 //thickness=0.18 //x=3.29 //y=1.37 //x2=3.175 //y2=1.37
r168 (  57 82 ) resistor r=5.52526 //w=0.168 //l=0.115 //layer=ply \
 //thickness=0.18 //x=3.51 //y=1.37 //x2=3.625 //y2=1.37
r169 (  56 76 ) resistor r=5.52526 //w=0.168 //l=0.115 //layer=ply \
 //thickness=0.18 //x=3.29 //y=0.715 //x2=3.175 //y2=0.715
r170 (  55 81 ) resistor r=5.52526 //w=0.168 //l=0.115 //layer=ply \
 //thickness=0.18 //x=3.51 //y=0.715 //x2=3.625 //y2=0.715
r171 (  55 56 ) resistor r=112.809 //w=0.094 //l=0.22 //layer=ply \
 //thickness=0.18 //x=3.51 //y=0.715 //x2=3.29 //y2=0.715
r172 (  52 78 ) resistor r=13.0941 //w=0.233 //l=0.165 //layer=ply \
 //thickness=0.18 //x=3.23 //y=4.865 //x2=3.23 //y2=4.7
r173 (  51 75 ) resistor r=34.8111 //w=0.27 //l=0.264953 //layer=ply \
 //thickness=0.18 //x=3.135 //y=1.92 //x2=3.33 //y2=2.085
r174 (  50 77 ) resistor r=39.5823 //w=0.21 //l=0.173853 //layer=ply \
 //thickness=0.18 //x=3.135 //y=1.525 //x2=3.175 //y2=1.37
r175 (  50 51 ) resistor r=202.543 //w=0.094 //l=0.395 //layer=ply \
 //thickness=0.18 //x=3.135 //y=1.525 //x2=3.135 //y2=1.92
r176 (  49 77 ) resistor r=39.5823 //w=0.21 //l=0.173853 //layer=ply \
 //thickness=0.18 //x=3.135 //y=1.215 //x2=3.175 //y2=1.37
r177 (  48 76 ) resistor r=45.1352 //w=0.168 //l=0.173853 //layer=ply \
 //thickness=0.18 //x=3.135 //y=0.87 //x2=3.175 //y2=0.715
r178 (  48 49 ) resistor r=176.904 //w=0.094 //l=0.345 //layer=ply \
 //thickness=0.18 //x=3.135 //y=0.87 //x2=3.135 //y2=1.215
r179 (  47 73 ) resistor r=45.1352 //w=0.168 //l=0.173853 //layer=ply \
 //thickness=0.18 //x=1.38 //y=1.255 //x2=1.34 //y2=1.41
r180 (  46 72 ) resistor r=45.1352 //w=0.168 //l=0.173853 //layer=ply \
 //thickness=0.18 //x=1.38 //y=0.91 //x2=1.34 //y2=0.755
r181 (  46 47 ) resistor r=176.904 //w=0.094 //l=0.345 //layer=ply \
 //thickness=0.18 //x=1.38 //y=0.91 //x2=1.38 //y2=1.255
r182 (  41 71 ) resistor r=10.701 //w=0.21 //l=0.115 //layer=ply \
 //thickness=0.18 //x=1.005 //y=1.41 //x2=0.89 //y2=1.41
r183 (  40 73 ) resistor r=5.52526 //w=0.168 //l=0.115 //layer=ply \
 //thickness=0.18 //x=1.225 //y=1.41 //x2=1.34 //y2=1.41
r184 (  39 70 ) resistor r=5.52526 //w=0.168 //l=0.115 //layer=ply \
 //thickness=0.18 //x=1.005 //y=0.755 //x2=0.89 //y2=0.755
r185 (  38 72 ) resistor r=5.52526 //w=0.168 //l=0.115 //layer=ply \
 //thickness=0.18 //x=1.225 //y=0.755 //x2=1.34 //y2=0.755
r186 (  38 39 ) resistor r=112.809 //w=0.094 //l=0.22 //layer=ply \
 //thickness=0.18 //x=1.225 //y=0.755 //x2=1.005 //y2=0.755
r187 (  36 43 ) resistor r=26.9307 //w=0.15 //l=0.106066 //layer=ply \
 //thickness=0.18 //x=1.26 //y=4.79 //x2=1.335 //y2=4.865
r188 (  36 37 ) resistor r=148.702 //w=0.094 //l=0.29 //layer=ply \
 //thickness=0.18 //x=1.26 //y=4.79 //x2=0.97 //y2=4.79
r189 (  33 37 ) resistor r=23.403 //w=0.284 //l=0.106066 //layer=ply \
 //thickness=0.18 //x=0.895 //y=4.865 //x2=0.97 //y2=4.79
r190 (  33 69 ) resistor r=26.3063 //w=0.284 //l=0.229783 //layer=ply \
 //thickness=0.18 //x=0.895 //y=4.865 //x2=0.74 //y2=4.7
r191 (  32 67 ) resistor r=19.1248 //w=0.302 //l=0.165 //layer=ply \
 //thickness=0.18 //x=0.85 //y=1.92 //x2=0.85 //y2=2.085
r192 (  31 71 ) resistor r=39.5823 //w=0.21 //l=0.173853 //layer=ply \
 //thickness=0.18 //x=0.85 //y=1.565 //x2=0.89 //y2=1.41
r193 (  31 32 ) resistor r=182.032 //w=0.094 //l=0.355 //layer=ply \
 //thickness=0.18 //x=0.85 //y=1.565 //x2=0.85 //y2=1.92
r194 (  30 71 ) resistor r=39.5823 //w=0.21 //l=0.173853 //layer=ply \
 //thickness=0.18 //x=0.85 //y=1.255 //x2=0.89 //y2=1.41
r195 (  29 70 ) resistor r=45.1352 //w=0.168 //l=0.173853 //layer=ply \
 //thickness=0.18 //x=0.85 //y=0.91 //x2=0.89 //y2=0.755
r196 (  29 30 ) resistor r=176.904 //w=0.094 //l=0.345 //layer=ply \
 //thickness=0.18 //x=0.85 //y=0.91 //x2=0.85 //y2=1.255
r197 (  28 62 ) resistor r=592.245 //w=0.094 //l=1.155 //layer=ply \
 //thickness=0.18 //x=3.67 //y=6.02 //x2=3.67 //y2=4.865
r198 (  27 52 ) resistor r=592.245 //w=0.094 //l=1.155 //layer=ply \
 //thickness=0.18 //x=3.23 //y=6.02 //x2=3.23 //y2=4.865
r199 (  26 43 ) resistor r=592.245 //w=0.094 //l=1.155 //layer=ply \
 //thickness=0.18 //x=1.335 //y=6.02 //x2=1.335 //y2=4.865
r200 (  25 33 ) resistor r=592.245 //w=0.094 //l=1.155 //layer=ply \
 //thickness=0.18 //x=0.895 //y=6.02 //x2=0.895 //y2=4.865
r201 (  24 57 ) resistor r=56.4043 //w=0.094 //l=0.11 //layer=ply \
 //thickness=0.18 //x=3.4 //y=1.37 //x2=3.51 //y2=1.37
r202 (  24 58 ) resistor r=56.4043 //w=0.094 //l=0.11 //layer=ply \
 //thickness=0.18 //x=3.4 //y=1.37 //x2=3.29 //y2=1.37
r203 (  23 40 ) resistor r=56.4043 //w=0.094 //l=0.11 //layer=ply \
 //thickness=0.18 //x=1.115 //y=1.41 //x2=1.225 //y2=1.41
r204 (  23 41 ) resistor r=56.4043 //w=0.094 //l=0.11 //layer=ply \
 //thickness=0.18 //x=1.115 //y=1.41 //x2=1.005 //y2=1.41
r205 (  21 80 ) resistor r=152 //w=0.17 //l=0.17 //layer=licon //count=1 \
 //x=3.33 //y=4.7 //x2=3.33 //y2=4.7
r206 (  19 21 ) resistor r=43.123 //w=0.187 //l=0.63 //layer=li \
 //thickness=0.1 //x=3.33 //y=4.07 //x2=3.33 //y2=4.7
r207 (  16 75 ) resistor r=152 //w=0.17 //l=0.17 //layer=licon //count=1 \
 //x=3.33 //y=2.085 //x2=3.33 //y2=2.085
r208 (  16 19 ) resistor r=135.872 //w=0.187 //l=1.985 //layer=li \
 //thickness=0.1 //x=3.33 //y=2.085 //x2=3.33 //y2=4.07
r209 (  13 69 ) resistor r=152 //w=0.17 //l=0.17 //layer=licon //count=1 \
 //x=0.74 //y=4.7 //x2=0.74 //y2=4.7
r210 (  11 13 ) resistor r=43.123 //w=0.187 //l=0.63 //layer=li \
 //thickness=0.1 //x=0.74 //y=4.07 //x2=0.74 //y2=4.7
r211 (  8 66 ) resistor r=152 //w=0.17 //l=0.17 //layer=licon //count=1 \
 //x=0.74 //y=2.085 //x2=0.74 //y2=2.085
r212 (  8 11 ) resistor r=135.872 //w=0.187 //l=1.985 //layer=li \
 //thickness=0.1 //x=0.74 //y=2.085 //x2=0.74 //y2=4.07
r213 (  6 19 ) resistor r=9.3 //w=0.17 //l=0.17 //layer=mcon //count=1 \
 //x=3.33 //y=4.07 //x2=3.33 //y2=4.07
r214 (  4 11 ) resistor r=9.3 //w=0.17 //l=0.17 //layer=mcon //count=1 \
 //x=0.74 //y=4.07 //x2=0.74 //y2=4.07
r215 (  2 4 ) resistor r=0.0717383 //w=0.224 //l=0.115 //layer=m1 \
 //thickness=0.36 //x=0.855 //y=4.07 //x2=0.74 //y2=4.07
r216 (  1 6 ) resistor r=0.0717383 //w=0.224 //l=0.115 //layer=m1 \
 //thickness=0.36 //x=3.215 //y=4.07 //x2=3.33 //y2=4.07
r217 (  1 2 ) resistor r=2.25191 //w=0.131 //l=2.36 //layer=m1 \
 //thickness=0.36 //x=3.215 //y=4.07 //x2=0.855 //y2=4.07
ends PM_XOR2X1_PCELL\%noxref_3

subckt PM_XOR2X1_PCELL\%noxref_4 ( 1 2 17 18 19 20 24 26 33 34 35 36 37 38 39 \
 43 45 51 52 60 62 64 )