// File: XOR2X1.spi.pex
// Created: Tue Oct 15 15:54:07 2024
// Program "Calibre xRC"
// Version "v2023.2_27.15"
// Nominal Temperature: 30C
// Circuit Temperature: 30C
// 
simulator lang=spectre
subckt PM_XOR2X1\%GND ( 1 21 33 37 40 45 51 57 63 71 79 82 87 91 103 114 117 \
 119 126 133 134 135 136 )
c165 ( 136 0 ) capacitor c=0.0583152f //x=9.375 //y=0.37
c166 ( 135 0 ) capacitor c=0.0210151f //x=6.54 //y=0.87
c167 ( 134 0 ) capacitor c=0.0210151f //x=3.21 //y=0.87
c168 ( 133 0 ) capacitor c=0.0582156f //x=0.495 //y=0.37
c169 ( 126 0 ) capacitor c=0.229233f //x=10.47 //y=0
c170 ( 119 0 ) capacitor c=0.103612f //x=8.88 //y=0
c171 ( 118 0 ) capacitor c=0.0044012f //x=6.73 //y=0
c172 ( 117 0 ) capacitor c=0.104587f //x=5.55 //y=0
c173 ( 116 0 ) capacitor c=0.0044012f //x=3.33 //y=0
c174 ( 114 0 ) capacitor c=0.102385f //x=2.22 //y=0
c175 ( 103 0 ) capacitor c=0.192508f //x=0.63 //y=0
c176 ( 94 0 ) capacitor c=0.00592191f //x=10.47 //y=0.45
c177 ( 91 0 ) capacitor c=0.00644318f //x=10.385 //y=0.535
c178 ( 90 0 ) capacitor c=0.00479856f //x=9.985 //y=0.45
c179 ( 87 0 ) capacitor c=0.00531808f //x=9.9 //y=0.535
c180 ( 82 0 ) capacitor c=0.00587411f //x=9.5 //y=0.45
c181 ( 79 0 ) capacitor c=0.0160123f //x=9.415 //y=0
c182 ( 71 0 ) capacitor c=0.0720515f //x=8.71 //y=0
c183 ( 63 0 ) capacitor c=0.0389232f //x=6.645 //y=0
c184 ( 57 0 ) capacitor c=0.072035f //x=5.38 //y=0
c185 ( 51 0 ) capacitor c=0.0389232f //x=3.315 //y=0
c186 ( 46 0 ) capacitor c=0.0360673f //x=1.685 //y=0
c187 ( 45 0 ) capacitor c=0.0160123f //x=2.05 //y=0
c188 ( 40 0 ) capacitor c=0.00587411f //x=1.6 //y=0.45
c189 ( 37 0 ) capacitor c=0.00534353f //x=1.515 //y=0.535
c190 ( 36 0 ) capacitor c=0.00479856f //x=1.115 //y=0.45
c191 ( 33 0 ) capacitor c=0.00707849f //x=1.03 //y=0.535
c192 ( 28 0 ) capacitor c=0.00592191f //x=0.63 //y=0.45
c193 ( 21 0 ) capacitor c=0.388313f //x=10.36 //y=0
r194 (  125 126 ) resistor r=3.94398 //w=0.357 //l=0.11 //layer=li \
 //thickness=0.1 //x=10.36 //y=0 //x2=10.47 //y2=0
r195 (  123 125 ) resistor r=13.4454 //w=0.357 //l=0.375 //layer=li \
 //thickness=0.1 //x=9.985 //y=0 //x2=10.36 //y2=0
r196 (  122 123 ) resistor r=13.0868 //w=0.357 //l=0.365 //layer=li \
 //thickness=0.1 //x=9.62 //y=0 //x2=9.985 //y2=0
r197 (  120 122 ) resistor r=4.30252 //w=0.357 //l=0.12 //layer=li \
 //thickness=0.1 //x=9.5 //y=0 //x2=9.62 //y2=0
r198 (  106 107 ) resistor r=17.3894 //w=0.357 //l=0.485 //layer=li \
 //thickness=0.1 //x=1.115 //y=0 //x2=1.6 //y2=0
r199 (  105 106 ) resistor r=13.4454 //w=0.357 //l=0.375 //layer=li \
 //thickness=0.1 //x=0.74 //y=0 //x2=1.115 //y2=0
r200 (  103 105 ) resistor r=3.94398 //w=0.357 //l=0.11 //layer=li \
 //thickness=0.1 //x=0.63 //y=0 //x2=0.74 //y2=0
r201 (  95 136 ) resistor r=5.4201 //w=0.17 //l=0.085 //layer=li \
 //thickness=0.1 //x=10.47 //y=0.62 //x2=10.47 //y2=0.535
r202 (  95 136 ) resistor r=41.4118 //w=0.187 //l=0.605 //layer=li \
 //thickness=0.1 //x=10.47 //y=0.62 //x2=10.47 //y2=1.225
r203 (  94 136 ) resistor r=5.4201 //w=0.17 //l=0.085 //layer=li \
 //thickness=0.1 //x=10.47 //y=0.45 //x2=10.47 //y2=0.535
r204 (  93 126 ) resistor r=5.03728 //w=0.34 //l=0.17 //layer=li \
 //thickness=0.1 //x=10.47 //y=0.17 //x2=10.47 //y2=0
r205 (  93 94 ) resistor r=19.1658 //w=0.187 //l=0.28 //layer=li \
 //thickness=0.1 //x=10.47 //y=0.17 //x2=10.47 //y2=0.45
r206 (  92 136 ) resistor r=5.4201 //w=0.17 //l=0.085 //layer=li \
 //thickness=0.1 //x=10.07 //y=0.535 //x2=9.985 //y2=0.535
r207 (  91 136 ) resistor r=1.40859 //w=0.34 //l=0.085 //layer=li \
 //thickness=0.1 //x=10.385 //y=0.535 //x2=10.47 //y2=0.535
r208 (  91 92 ) resistor r=21.5615 //w=0.187 //l=0.315 //layer=li \
 //thickness=0.1 //x=10.385 //y=0.535 //x2=10.07 //y2=0.535
r209 (  90 136 ) resistor r=1.40859 //w=0.34 //l=0.085 //layer=li \
 //thickness=0.1 //x=9.985 //y=0.45 //x2=9.985 //y2=0.535
r210 (  89 123 ) resistor r=5.03728 //w=0.34 //l=0.17 //layer=li \
 //thickness=0.1 //x=9.985 //y=0.17 //x2=9.985 //y2=0
r211 (  89 90 ) resistor r=19.1658 //w=0.187 //l=0.28 //layer=li \
 //thickness=0.1 //x=9.985 //y=0.17 //x2=9.985 //y2=0.45
r212 (  88 136 ) resistor r=1.40859 //w=0.34 //l=0.085 //layer=li \
 //thickness=0.1 //x=9.585 //y=0.535 //x2=9.5 //y2=0.535
r213 (  87 136 ) resistor r=5.4201 //w=0.17 //l=0.085 //layer=li \
 //thickness=0.1 //x=9.9 //y=0.535 //x2=9.985 //y2=0.535
r214 (  87 88 ) resistor r=21.5615 //w=0.187 //l=0.315 //layer=li \
 //thickness=0.1 //x=9.9 //y=0.535 //x2=9.585 //y2=0.535
r215 (  83 136 ) resistor r=5.4201 //w=0.17 //l=0.085 //layer=li \
 //thickness=0.1 //x=9.5 //y=0.62 //x2=9.5 //y2=0.535
r216 (  83 136 ) resistor r=41.4118 //w=0.187 //l=0.605 //layer=li \
 //thickness=0.1 //x=9.5 //y=0.62 //x2=9.5 //y2=1.225
r217 (  82 136 ) resistor r=5.4201 //w=0.17 //l=0.085 //layer=li \
 //thickness=0.1 //x=9.5 //y=0.45 //x2=9.5 //y2=0.535
r218 (  81 120 ) resistor r=5.03728 //w=0.34 //l=0.17 //layer=li \
 //thickness=0.1 //x=9.5 //y=0.17 //x2=9.5 //y2=0
r219 (  81 82 ) resistor r=19.1658 //w=0.187 //l=0.28 //layer=li \
 //thickness=0.1 //x=9.5 //y=0.17 //x2=9.5 //y2=0.45
r220 (  80 119 ) resistor r=5.4201 //w=0.34 //l=0.17 //layer=li \
 //thickness=0.1 //x=9.05 //y=0 //x2=8.88 //y2=0
r221 (  79 120 ) resistor r=3.04762 //w=0.357 //l=0.085 //layer=li \
 //thickness=0.1 //x=9.415 //y=0 //x2=9.5 //y2=0
r222 (  79 80 ) resistor r=13.0868 //w=0.357 //l=0.365 //layer=li \
 //thickness=0.1 //x=9.415 //y=0 //x2=9.05 //y2=0
r223 (  74 76 ) resistor r=39.7983 //w=0.357 //l=1.11 //layer=li \
 //thickness=0.1 //x=7.03 //y=0 //x2=8.14 //y2=0
r224 (  72 118 ) resistor r=2.94794 //w=0.34 //l=0.085 //layer=li \
 //thickness=0.1 //x=6.815 //y=0 //x2=6.73 //y2=0
r225 (  72 74 ) resistor r=7.70868 //w=0.357 //l=0.215 //layer=li \
 //thickness=0.1 //x=6.815 //y=0 //x2=7.03 //y2=0
r226 (  71 119 ) resistor r=5.4201 //w=0.34 //l=0.17 //layer=li \
 //thickness=0.1 //x=8.71 //y=0 //x2=8.88 //y2=0
r227 (  71 76 ) resistor r=20.437 //w=0.357 //l=0.57 //layer=li \
 //thickness=0.1 //x=8.71 //y=0 //x2=8.14 //y2=0
r228 (  67 118 ) resistor r=4.11603 //w=0.68 //l=0.17 //layer=li \
 //thickness=0.1 //x=6.73 //y=0.17 //x2=6.73 //y2=0
r229 (  67 135 ) resistor r=54.0749 //w=0.187 //l=0.79 //layer=li \
 //thickness=0.1 //x=6.73 //y=0.17 //x2=6.73 //y2=0.96
r230 (  64 117 ) resistor r=5.4201 //w=0.34 //l=0.17 //layer=li \
 //thickness=0.1 //x=5.72 //y=0 //x2=5.55 //y2=0
r231 (  64 66 ) resistor r=7.17087 //w=0.357 //l=0.2 //layer=li \
 //thickness=0.1 //x=5.72 //y=0 //x2=5.92 //y2=0
r232 (  63 118 ) resistor r=2.94794 //w=0.34 //l=0.085 //layer=li \
 //thickness=0.1 //x=6.645 //y=0 //x2=6.73 //y2=0
r233 (  63 66 ) resistor r=25.9944 //w=0.357 //l=0.725 //layer=li \
 //thickness=0.1 //x=6.645 //y=0 //x2=5.92 //y2=0
r234 (  58 116 ) resistor r=2.94794 //w=0.34 //l=0.085 //layer=li \
 //thickness=0.1 //x=3.485 //y=0 //x2=3.4 //y2=0
r235 (  58 60 ) resistor r=34.2409 //w=0.357 //l=0.955 //layer=li \
 //thickness=0.1 //x=3.485 //y=0 //x2=4.44 //y2=0
r236 (  57 117 ) resistor r=5.4201 //w=0.34 //l=0.17 //layer=li \
 //thickness=0.1 //x=5.38 //y=0 //x2=5.55 //y2=0
r237 (  57 60 ) resistor r=33.7031 //w=0.357 //l=0.94 //layer=li \
 //thickness=0.1 //x=5.38 //y=0 //x2=4.44 //y2=0
r238 (  53 116 ) resistor r=4.11603 //w=0.68 //l=0.17 //layer=li \
 //thickness=0.1 //x=3.4 //y=0.17 //x2=3.4 //y2=0
r239 (  53 134 ) resistor r=54.0749 //w=0.187 //l=0.79 //layer=li \
 //thickness=0.1 //x=3.4 //y=0.17 //x2=3.4 //y2=0.96
r240 (  52 114 ) resistor r=5.4201 //w=0.34 //l=0.17 //layer=li \
 //thickness=0.1 //x=2.39 //y=0 //x2=2.22 //y2=0
r241 (  51 116 ) resistor r=2.94794 //w=0.34 //l=0.085 //layer=li \
 //thickness=0.1 //x=3.315 //y=0 //x2=3.4 //y2=0
r242 (  51 52 ) resistor r=33.1653 //w=0.357 //l=0.925 //layer=li \
 //thickness=0.1 //x=3.315 //y=0 //x2=2.39 //y2=0
r243 (  46 107 ) resistor r=3.04762 //w=0.357 //l=0.085 //layer=li \
 //thickness=0.1 //x=1.685 //y=0 //x2=1.6 //y2=0
r244 (  46 48 ) resistor r=5.91597 //w=0.357 //l=0.165 //layer=li \
 //thickness=0.1 //x=1.685 //y=0 //x2=1.85 //y2=0
r245 (  45 114 ) resistor r=5.4201 //w=0.34 //l=0.17 //layer=li \
 //thickness=0.1 //x=2.05 //y=0 //x2=2.22 //y2=0
r246 (  45 48 ) resistor r=7.17087 //w=0.357 //l=0.2 //layer=li \
 //thickness=0.1 //x=2.05 //y=0 //x2=1.85 //y2=0
r247 (  41 133 ) resistor r=5.4201 //w=0.17 //l=0.085 //layer=li \
 //thickness=0.1 //x=1.6 //y=0.62 //x2=1.6 //y2=0.535
r248 (  41 133 ) resistor r=41.4118 //w=0.187 //l=0.605 //layer=li \
 //thickness=0.1 //x=1.6 //y=0.62 //x2=1.6 //y2=1.225
r249 (  40 133 ) resistor r=5.4201 //w=0.17 //l=0.085 //layer=li \
 //thickness=0.1 //x=1.6 //y=0.45 //x2=1.6 //y2=0.535
r250 (  39 107 ) resistor r=5.03728 //w=0.34 //l=0.17 //layer=li \
 //thickness=0.1 //x=1.6 //y=0.17 //x2=1.6 //y2=0
r251 (  39 40 ) resistor r=19.1658 //w=0.187 //l=0.28 //layer=li \
 //thickness=0.1 //x=1.6 //y=0.17 //x2=1.6 //y2=0.45
r252 (  38 133 ) resistor r=5.4201 //w=0.17 //l=0.085 //layer=li \
 //thickness=0.1 //x=1.2 //y=0.535 //x2=1.115 //y2=0.535
r253 (  37 133 ) resistor r=1.40859 //w=0.34 //l=0.085 //layer=li \
 //thickness=0.1 //x=1.515 //y=0.535 //x2=1.6 //y2=0.535
r254 (  37 38 ) resistor r=21.5615 //w=0.187 //l=0.315 //layer=li \
 //thickness=0.1 //x=1.515 //y=0.535 //x2=1.2 //y2=0.535
r255 (  36 133 ) resistor r=1.40859 //w=0.34 //l=0.085 //layer=li \
 //thickness=0.1 //x=1.115 //y=0.45 //x2=1.115 //y2=0.535
r256 (  35 106 ) resistor r=5.03728 //w=0.34 //l=0.17 //layer=li \
 //thickness=0.1 //x=1.115 //y=0.17 //x2=1.115 //y2=0
r257 (  35 36 ) resistor r=19.1658 //w=0.187 //l=0.28 //layer=li \
 //thickness=0.1 //x=1.115 //y=0.17 //x2=1.115 //y2=0.45
r258 (  34 133 ) resistor r=1.40859 //w=0.34 //l=0.085 //layer=li \
 //thickness=0.1 //x=0.715 //y=0.535 //x2=0.63 //y2=0.535
r259 (  33 133 ) resistor r=5.4201 //w=0.17 //l=0.085 //layer=li \
 //thickness=0.1 //x=1.03 //y=0.535 //x2=1.115 //y2=0.535
r260 (  33 34 ) resistor r=21.5615 //w=0.187 //l=0.315 //layer=li \
 //thickness=0.1 //x=1.03 //y=0.535 //x2=0.715 //y2=0.535
r261 (  29 133 ) resistor r=5.4201 //w=0.17 //l=0.085 //layer=li \
 //thickness=0.1 //x=0.63 //y=0.62 //x2=0.63 //y2=0.535
r262 (  29 133 ) resistor r=41.4118 //w=0.187 //l=0.605 //layer=li \
 //thickness=0.1 //x=0.63 //y=0.62 //x2=0.63 //y2=1.225
r263 (  28 133 ) resistor r=5.4201 //w=0.17 //l=0.085 //layer=li \
 //thickness=0.1 //x=0.63 //y=0.45 //x2=0.63 //y2=0.535
r264 (  27 103 ) resistor r=5.03728 //w=0.34 //l=0.17 //layer=li \
 //thickness=0.1 //x=0.63 //y=0.17 //x2=0.63 //y2=0
r265 (  27 28 ) resistor r=19.1658 //w=0.187 //l=0.28 //layer=li \
 //thickness=0.1 //x=0.63 //y=0.17 //x2=0.63 //y2=0.45
r266 (  21 125 ) resistor r=4.65 //w=0.17 //l=0.34 //layer=mcon //count=2 \
 //x=10.36 //y=0 //x2=10.36 //y2=0
r267 (  19 122 ) resistor r=3.1 //w=0.17 //l=0.51 //layer=mcon //count=3 \
 //x=9.62 //y=0 //x2=9.62 //y2=0
r268 (  19 21 ) resistor r=0.307309 //w=0.301 //l=0.74 //layer=m1 \
 //thickness=0.36 //x=9.62 //y=0 //x2=10.36 //y2=0
r269 (  17 76 ) resistor r=3.1 //w=0.17 //l=0.51 //layer=mcon //count=3 \
 //x=8.14 //y=0 //x2=8.14 //y2=0
r270 (  17 19 ) resistor r=0.614618 //w=0.301 //l=1.48 //layer=m1 \
 //thickness=0.36 //x=8.14 //y=0 //x2=9.62 //y2=0
r271 (  15 74 ) resistor r=3.1 //w=0.17 //l=0.51 //layer=mcon //count=3 \
 //x=7.03 //y=0 //x2=7.03 //y2=0
r272 (  15 17 ) resistor r=0.460963 //w=0.301 //l=1.11 //layer=m1 \
 //thickness=0.36 //x=7.03 //y=0 //x2=8.14 //y2=0
r273 (  13 66 ) resistor r=3.1 //w=0.17 //l=0.51 //layer=mcon //count=3 \
 //x=5.92 //y=0 //x2=5.92 //y2=0
r274 (  13 15 ) resistor r=0.460963 //w=0.301 //l=1.11 //layer=m1 \
 //thickness=0.36 //x=5.92 //y=0 //x2=7.03 //y2=0
r275 (  10 60 ) resistor r=3.1 //w=0.17 //l=0.51 //layer=mcon //count=3 \
 //x=4.44 //y=0 //x2=4.44 //y2=0
r276 (  8 116 ) resistor r=3.1 //w=0.17 //l=0.51 //layer=mcon //count=3 \
 //x=3.33 //y=0 //x2=3.33 //y2=0
r277 (  8 10 ) resistor r=0.460963 //w=0.301 //l=1.11 //layer=m1 \
 //thickness=0.36 //x=3.33 //y=0 //x2=4.44 //y2=0
r278 (  6 48 ) resistor r=3.1 //w=0.17 //l=0.51 //layer=mcon //count=3 \
 //x=1.85 //y=0 //x2=1.85 //y2=0
r279 (  6 8 ) resistor r=0.614618 //w=0.301 //l=1.48 //layer=m1 \
 //thickness=0.36 //x=1.85 //y=0 //x2=3.33 //y2=0
r280 (  3 105 ) resistor r=3.1 //w=0.17 //l=0.51 //layer=mcon //count=3 \
 //x=0.74 //y=0 //x2=0.74 //y2=0
r281 (  3 6 ) resistor r=0.460963 //w=0.301 //l=1.11 //layer=m1 \
 //thickness=0.36 //x=0.74 //y=0 //x2=1.85 //y2=0
r282 (  1 13 ) resistor r=0.153654 //w=0.301 //l=0.37 //layer=m1 \
 //thickness=0.36 //x=5.55 //y=0 //x2=5.92 //y2=0
r283 (  1 10 ) resistor r=0.460963 //w=0.301 //l=1.11 //layer=m1 \
 //thickness=0.36 //x=5.55 //y=0 //x2=4.44 //y2=0
ends PM_XOR2X1\%GND

subckt PM_XOR2X1\%VDD ( 1 21 33 41 47 55 61 69 77 85 98 100 102 104 108 109 \
 110 111 112 113 114 )
c156 ( 114 0 ) capacitor c=0.0420685f //x=10.28 //y=5.02
c157 ( 113 0 ) capacitor c=0.0433633f //x=9.42 //y=5.02
c158 ( 112 0 ) capacitor c=0.0266033f //x=6.635 //y=5.02
c159 ( 111 0 ) capacitor c=0.0265296f //x=3.305 //y=5.02
c160 ( 110 0 ) capacitor c=0.0432963f //x=1.41 //y=5.02
c161 ( 109 0 ) capacitor c=0.0421443f //x=0.54 //y=5.02
c162 ( 108 0 ) capacitor c=0.232571f //x=10.36 //y=7.4
c163 ( 106 0 ) capacitor c=0.00591168f //x=9.62 //y=7.4
c164 ( 104 0 ) capacitor c=0.105702f //x=8.88 //y=7.4
c165 ( 103 0 ) capacitor c=0.00591168f //x=6.78 //y=7.4
c166 ( 102 0 ) capacitor c=0.111763f //x=5.55 //y=7.4
c167 ( 101 0 ) capacitor c=0.00591168f //x=3.45 //y=7.4
c168 ( 100 0 ) capacitor c=0.111559f //x=2.22 //y=7.4
c169 ( 99 0 ) capacitor c=0.00591168f //x=1.555 //y=7.4
c170 ( 98 0 ) capacitor c=0.232987f //x=0.74 //y=7.4
c171 ( 85 0 ) capacitor c=0.0289356f //x=10.34 //y=7.4
c172 ( 77 0 ) capacitor c=0.0181526f //x=9.46 //y=7.4
c173 ( 69 0 ) capacitor c=0.0747638f //x=8.71 //y=7.4
c174 ( 61 0 ) capacitor c=0.042882f //x=6.695 //y=7.4
c175 ( 55 0 ) capacitor c=0.074629f //x=5.38 //y=7.4
c176 ( 47 0 ) capacitor c=0.042884f //x=3.365 //y=7.4
c177 ( 41 0 ) capacitor c=0.0181526f //x=2.05 //y=7.4
c178 ( 33 0 ) capacitor c=0.0291066f //x=1.47 //y=7.4
c179 ( 21 0 ) capacitor c=0.40033f //x=10.36 //y=7.4
r180 (  87 108 ) resistor r=4.11603 //w=0.68 //l=0.17 //layer=li \
 //thickness=0.1 //x=10.425 //y=7.23 //x2=10.425 //y2=7.4
r181 (  87 114 ) resistor r=56.4706 //w=0.187 //l=0.825 //layer=li \
 //thickness=0.1 //x=10.425 //y=7.23 //x2=10.425 //y2=6.405
r182 (  86 106 ) resistor r=2.94794 //w=0.34 //l=0.085 //layer=li \
 //thickness=0.1 //x=9.63 //y=7.4 //x2=9.545 //y2=7.4
r183 (  85 108 ) resistor r=2.94794 //w=0.34 //l=0.085 //layer=li \
 //thickness=0.1 //x=10.34 //y=7.4 //x2=10.425 //y2=7.4
r184 (  85 86 ) resistor r=25.4566 //w=0.357 //l=0.71 //layer=li \
 //thickness=0.1 //x=10.34 //y=7.4 //x2=9.63 //y2=7.4
r185 (  79 106 ) resistor r=4.11603 //w=0.68 //l=0.17 //layer=li \
 //thickness=0.1 //x=9.545 //y=7.23 //x2=9.545 //y2=7.4
r186 (  79 113 ) resistor r=56.4706 //w=0.187 //l=0.825 //layer=li \
 //thickness=0.1 //x=9.545 //y=7.23 //x2=9.545 //y2=6.405
r187 (  78 104 ) resistor r=5.4201 //w=0.34 //l=0.17 //layer=li \
 //thickness=0.1 //x=9.05 //y=7.4 //x2=8.88 //y2=7.4
r188 (  77 106 ) resistor r=2.94794 //w=0.34 //l=0.085 //layer=li \
 //thickness=0.1 //x=9.46 //y=7.4 //x2=9.545 //y2=7.4
r189 (  77 78 ) resistor r=14.7003 //w=0.357 //l=0.41 //layer=li \
 //thickness=0.1 //x=9.46 //y=7.4 //x2=9.05 //y2=7.4
r190 (  72 74 ) resistor r=39.7983 //w=0.357 //l=1.11 //layer=li \
 //thickness=0.1 //x=7.03 //y=7.4 //x2=8.14 //y2=7.4
r191 (  70 103 ) resistor r=2.94794 //w=0.34 //l=0.085 //layer=li \
 //thickness=0.1 //x=6.865 //y=7.4 //x2=6.78 //y2=7.4
r192 (  70 72 ) resistor r=5.91597 //w=0.357 //l=0.165 //layer=li \
 //thickness=0.1 //x=6.865 //y=7.4 //x2=7.03 //y2=7.4
r193 (  69 104 ) resistor r=5.4201 //w=0.34 //l=0.17 //layer=li \
 //thickness=0.1 //x=8.71 //y=7.4 //x2=8.88 //y2=7.4
r194 (  69 74 ) resistor r=20.437 //w=0.357 //l=0.57 //layer=li \
 //thickness=0.1 //x=8.71 //y=7.4 //x2=8.14 //y2=7.4
r195 (  65 103 ) resistor r=4.11603 //w=0.68 //l=0.17 //layer=li \
 //thickness=0.1 //x=6.78 //y=7.23 //x2=6.78 //y2=7.4
r196 (  65 112 ) resistor r=80.4278 //w=0.187 //l=1.175 //layer=li \
 //thickness=0.1 //x=6.78 //y=7.23 //x2=6.78 //y2=6.055
r197 (  62 102 ) resistor r=5.4201 //w=0.34 //l=0.17 //layer=li \
 //thickness=0.1 //x=5.72 //y=7.4 //x2=5.55 //y2=7.4
r198 (  62 64 ) resistor r=7.17087 //w=0.357 //l=0.2 //layer=li \
 //thickness=0.1 //x=5.72 //y=7.4 //x2=5.92 //y2=7.4
r199 (  61 103 ) resistor r=2.94794 //w=0.34 //l=0.085 //layer=li \
 //thickness=0.1 //x=6.695 //y=7.4 //x2=6.78 //y2=7.4
r200 (  61 64 ) resistor r=27.7871 //w=0.357 //l=0.775 //layer=li \
 //thickness=0.1 //x=6.695 //y=7.4 //x2=5.92 //y2=7.4
r201 (  56 101 ) resistor r=2.94794 //w=0.34 //l=0.085 //layer=li \
 //thickness=0.1 //x=3.535 //y=7.4 //x2=3.45 //y2=7.4
r202 (  56 58 ) resistor r=32.4482 //w=0.357 //l=0.905 //layer=li \
 //thickness=0.1 //x=3.535 //y=7.4 //x2=4.44 //y2=7.4
r203 (  55 102 ) resistor r=5.4201 //w=0.34 //l=0.17 //layer=li \
 //thickness=0.1 //x=5.38 //y=7.4 //x2=5.55 //y2=7.4
r204 (  55 58 ) resistor r=33.7031 //w=0.357 //l=0.94 //layer=li \
 //thickness=0.1 //x=5.38 //y=7.4 //x2=4.44 //y2=7.4
r205 (  51 101 ) resistor r=4.11603 //w=0.68 //l=0.17 //layer=li \
 //thickness=0.1 //x=3.45 //y=7.23 //x2=3.45 //y2=7.4
r206 (  51 111 ) resistor r=80.4278 //w=0.187 //l=1.175 //layer=li \
 //thickness=0.1 //x=3.45 //y=7.23 //x2=3.45 //y2=6.055
r207 (  48 100 ) resistor r=5.4201 //w=0.34 //l=0.17 //layer=li \
 //thickness=0.1 //x=2.39 //y=7.4 //x2=2.22 //y2=7.4
r208 (  48 50 ) resistor r=33.7031 //w=0.357 //l=0.94 //layer=li \
 //thickness=0.1 //x=2.39 //y=7.4 //x2=3.33 //y2=7.4
r209 (  47 101 ) resistor r=2.94794 //w=0.34 //l=0.085 //layer=li \
 //thickness=0.1 //x=3.365 //y=7.4 //x2=3.45 //y2=7.4
r210 (  47 50 ) resistor r=1.2549 //w=0.357 //l=0.035 //layer=li \
 //thickness=0.1 //x=3.365 //y=7.4 //x2=3.33 //y2=7.4
r211 (  42 99 ) resistor r=2.94794 //w=0.34 //l=0.085 //layer=li \
 //thickness=0.1 //x=1.64 //y=7.4 //x2=1.555 //y2=7.4
r212 (  42 44 ) resistor r=7.52941 //w=0.357 //l=0.21 //layer=li \
 //thickness=0.1 //x=1.64 //y=7.4 //x2=1.85 //y2=7.4
r213 (  41 100 ) resistor r=5.4201 //w=0.34 //l=0.17 //layer=li \
 //thickness=0.1 //x=2.05 //y=7.4 //x2=2.22 //y2=7.4
r214 (  41 44 ) resistor r=7.17087 //w=0.357 //l=0.2 //layer=li \
 //thickness=0.1 //x=2.05 //y=7.4 //x2=1.85 //y2=7.4
r215 (  35 99 ) resistor r=4.11603 //w=0.68 //l=0.17 //layer=li \
 //thickness=0.1 //x=1.555 //y=7.23 //x2=1.555 //y2=7.4
r216 (  35 110 ) resistor r=56.4706 //w=0.187 //l=0.825 //layer=li \
 //thickness=0.1 //x=1.555 //y=7.23 //x2=1.555 //y2=6.405
r217 (  34 98 ) resistor r=2.94794 //w=0.34 //l=0.085 //layer=li \
 //thickness=0.1 //x=0.76 //y=7.4 //x2=0.675 //y2=7.4
r218 (  33 99 ) resistor r=2.94794 //w=0.34 //l=0.085 //layer=li \
 //thickness=0.1 //x=1.47 //y=7.4 //x2=1.555 //y2=7.4
r219 (  33 34 ) resistor r=25.4566 //w=0.357 //l=0.71 //layer=li \
 //thickness=0.1 //x=1.47 //y=7.4 //x2=0.76 //y2=7.4
r220 (  27 98 ) resistor r=4.11603 //w=0.68 //l=0.17 //layer=li \
 //thickness=0.1 //x=0.675 //y=7.23 //x2=0.675 //y2=7.4
r221 (  27 109 ) resistor r=56.4706 //w=0.187 //l=0.825 //layer=li \
 //thickness=0.1 //x=0.675 //y=7.23 //x2=0.675 //y2=6.405
r222 (  21 108 ) resistor r=4.65 //w=0.17 //l=0.34 //layer=mcon //count=2 \
 //x=10.36 //y=7.4 //x2=10.36 //y2=7.4
r223 (  19 106 ) resistor r=3.1 //w=0.17 //l=0.51 //layer=mcon //count=3 \
 //x=9.62 //y=7.4 //x2=9.62 //y2=7.4
r224 (  19 21 ) resistor r=0.307309 //w=0.301 //l=0.74 //layer=m1 \
 //thickness=0.36 //x=9.62 //y=7.4 //x2=10.36 //y2=7.4
r225 (  17 74 ) resistor r=3.1 //w=0.17 //l=0.51 //layer=mcon //count=3 \
 //x=8.14 //y=7.4 //x2=8.14 //y2=7.4
r226 (  17 19 ) resistor r=0.614618 //w=0.301 //l=1.48 //layer=m1 \
 //thickness=0.36 //x=8.14 //y=7.4 //x2=9.62 //y2=7.4
r227 (  15 72 ) resistor r=3.1 //w=0.17 //l=0.51 //layer=mcon //count=3 \
 //x=7.03 //y=7.4 //x2=7.03 //y2=7.4
r228 (  15 17 ) resistor r=0.460963 //w=0.301 //l=1.11 //layer=m1 \
 //thickness=0.36 //x=7.03 //y=7.4 //x2=8.14 //y2=7.4
r229 (  13 64 ) resistor r=3.1 //w=0.17 //l=0.51 //layer=mcon //count=3 \
 //x=5.92 //y=7.4 //x2=5.92 //y2=7.4
r230 (  13 15 ) resistor r=0.460963 //w=0.301 //l=1.11 //layer=m1 \
 //thickness=0.36 //x=5.92 //y=7.4 //x2=7.03 //y2=7.4
r231 (  10 58 ) resistor r=3.1 //w=0.17 //l=0.51 //layer=mcon //count=3 \
 //x=4.44 //y=7.4 //x2=4.44 //y2=7.4
r232 (  8 50 ) resistor r=3.1 //w=0.17 //l=0.51 //layer=mcon //count=3 \
 //x=3.33 //y=7.4 //x2=3.33 //y2=7.4
r233 (  8 10 ) resistor r=0.460963 //w=0.301 //l=1.11 //layer=m1 \
 //thickness=0.36 //x=3.33 //y=7.4 //x2=4.44 //y2=7.4
r234 (  6 44 ) resistor r=3.1 //w=0.17 //l=0.51 //layer=mcon //count=3 \
 //x=1.85 //y=7.4 //x2=1.85 //y2=7.4
r235 (  6 8 ) resistor r=0.614618 //w=0.301 //l=1.48 //layer=m1 \
 //thickness=0.36 //x=1.85 //y=7.4 //x2=3.33 //y2=7.4
r236 (  3 98 ) resistor r=3.1 //w=0.17 //l=0.51 //layer=mcon //count=3 \
 //x=0.74 //y=7.4 //x2=0.74 //y2=7.4
r237 (  3 6 ) resistor r=0.460963 //w=0.301 //l=1.11 //layer=m1 \
 //thickness=0.36 //x=0.74 //y=7.4 //x2=1.85 //y2=7.4
r238 (  1 13 ) resistor r=0.153654 //w=0.301 //l=0.37 //layer=m1 \
 //thickness=0.36 //x=5.55 //y=7.4 //x2=5.92 //y2=7.4
r239 (  1 10 ) resistor r=0.460963 //w=0.301 //l=1.11 //layer=m1 \
 //thickness=0.36 //x=5.55 //y=7.4 //x2=4.44 //y2=7.4
ends PM_XOR2X1\%VDD

subckt PM_XOR2X1\%A ( 1 2 7 8 9 10 11 12 13 14 15 16 17 18 19 21 35 47 48 49 \
 50 51 52 53 54 55 56 60 61 62 64 70 71 72 73 74 75 79 81 84 85 90 104 )
c133 ( 104 0 ) capacitor c=0.0661295f //x=3.33 //y=4.7
c134 ( 90 0 ) capacitor c=0.0537799f //x=0.74 //y=2.085
c135 ( 85 0 ) capacitor c=0.0318948f //x=3.665 //y=1.215
c136 ( 84 0 ) capacitor c=0.0187407f //x=3.665 //y=0.87
c137 ( 81 0 ) capacitor c=0.0141798f //x=3.51 //y=1.37
c138 ( 79 0 ) capacitor c=0.0149852f //x=3.51 //y=0.715
c139 ( 75 0 ) capacitor c=0.0836807f //x=3.135 //y=1.92
c140 ( 74 0 ) capacitor c=0.0229722f //x=3.135 //y=1.525
c141 ( 73 0 ) capacitor c=0.0234352f //x=3.135 //y=1.215
c142 ( 72 0 ) capacitor c=0.0199366f //x=3.135 //y=0.87
c143 ( 71 0 ) capacitor c=0.0435629f //x=1.38 //y=1.255
c144 ( 70 0 ) capacitor c=0.0200386f //x=1.38 //y=0.91
c145 ( 64 0 ) capacitor c=0.0152946f //x=1.225 //y=1.41
c146 ( 62 0 ) capacitor c=0.0157804f //x=1.225 //y=0.755
c147 ( 61 0 ) capacitor c=0.048995f //x=0.97 //y=4.79
c148 ( 60 0 ) capacitor c=0.0303096f //x=1.26 //y=4.79
c149 ( 56 0 ) capacitor c=0.0290017f //x=0.85 //y=1.92
c150 ( 55 0 ) capacitor c=0.0250027f //x=0.85 //y=1.565
c151 ( 54 0 ) capacitor c=0.0234316f //x=0.85 //y=1.255
c152 ( 53 0 ) capacitor c=0.0200596f //x=0.85 //y=0.91
c153 ( 52 0 ) capacitor c=0.110797f //x=3.67 //y=6.02
c154 ( 51 0 ) capacitor c=0.154322f //x=3.23 //y=6.02
c155 ( 50 0 ) capacitor c=0.154218f //x=1.335 //y=6.02
c156 ( 49 0 ) capacitor c=0.154243f //x=0.895 //y=6.02
c157 ( 35 0 ) capacitor c=0.109612f //x=3.33 //y=2.085
c158 ( 21 0 ) capacitor c=0.11095f //x=0.74 //y=2.085
c159 ( 2 0 ) capacitor c=0.0144527f //x=0.855 //y=4.07
c160 ( 1 0 ) capacitor c=0.0971867f //x=3.215 //y=4.07
r161 (  102 104 ) resistor r=20.6867 //w=0.233 //l=0.1 //layer=ply \
 //thickness=0.18 //x=3.23 //y=4.7 //x2=3.33 //y2=4.7
r162 (  90 91 ) resistor r=17.5563 //w=0.302 //l=0.11 //layer=ply \
 //thickness=0.18 //x=0.74 //y=2.085 //x2=0.85 //y2=2.085
r163 (  86 104 ) resistor r=70.3348 //w=0.233 //l=0.414367 //layer=ply \
 //thickness=0.18 //x=3.67 //y=4.865 //x2=3.33 //y2=4.7
r164 (  85 106 ) resistor r=45.1352 //w=0.168 //l=0.173853 //layer=ply \
 //thickness=0.18 //x=3.665 //y=1.215 //x2=3.625 //y2=1.37
r165 (  84 105 ) resistor r=45.1352 //w=0.168 //l=0.173853 //layer=ply \
 //thickness=0.18 //x=3.665 //y=0.87 //x2=3.625 //y2=0.715
r166 (  84 85 ) resistor r=176.904 //w=0.094 //l=0.345 //layer=ply \
 //thickness=0.18 //x=3.665 //y=0.87 //x2=3.665 //y2=1.215
r167 (  82 101 ) resistor r=10.701 //w=0.21 //l=0.115 //layer=ply \
 //thickness=0.18 //x=3.29 //y=1.37 //x2=3.175 //y2=1.37
r168 (  81 106 ) resistor r=5.52526 //w=0.168 //l=0.115 //layer=ply \
 //thickness=0.18 //x=3.51 //y=1.37 //x2=3.625 //y2=1.37
r169 (  80 100 ) resistor r=5.52526 //w=0.168 //l=0.115 //layer=ply \
 //thickness=0.18 //x=3.29 //y=0.715 //x2=3.175 //y2=0.715
r170 (  79 105 ) resistor r=5.52526 //w=0.168 //l=0.115 //layer=ply \
 //thickness=0.18 //x=3.51 //y=0.715 //x2=3.625 //y2=0.715
r171 (  79 80 ) resistor r=112.809 //w=0.094 //l=0.22 //layer=ply \
 //thickness=0.18 //x=3.51 //y=0.715 //x2=3.29 //y2=0.715
r172 (  76 102 ) resistor r=13.0941 //w=0.233 //l=0.165 //layer=ply \
 //thickness=0.18 //x=3.23 //y=4.865 //x2=3.23 //y2=4.7
r173 (  75 99 ) resistor r=34.8111 //w=0.27 //l=0.264953 //layer=ply \
 //thickness=0.18 //x=3.135 //y=1.92 //x2=3.33 //y2=2.085
r174 (  74 101 ) resistor r=39.5823 //w=0.21 //l=0.173853 //layer=ply \
 //thickness=0.18 //x=3.135 //y=1.525 //x2=3.175 //y2=1.37
r175 (  74 75 ) resistor r=202.543 //w=0.094 //l=0.395 //layer=ply \
 //thickness=0.18 //x=3.135 //y=1.525 //x2=3.135 //y2=1.92
r176 (  73 101 ) resistor r=39.5823 //w=0.21 //l=0.173853 //layer=ply \
 //thickness=0.18 //x=3.135 //y=1.215 //x2=3.175 //y2=1.37
r177 (  72 100 ) resistor r=45.1352 //w=0.168 //l=0.173853 //layer=ply \
 //thickness=0.18 //x=3.135 //y=0.87 //x2=3.175 //y2=0.715
r178 (  72 73 ) resistor r=176.904 //w=0.094 //l=0.345 //layer=ply \
 //thickness=0.18 //x=3.135 //y=0.87 //x2=3.135 //y2=1.215
r179 (  71 97 ) resistor r=45.1352 //w=0.168 //l=0.173853 //layer=ply \
 //thickness=0.18 //x=1.38 //y=1.255 //x2=1.34 //y2=1.41
r180 (  70 96 ) resistor r=45.1352 //w=0.168 //l=0.173853 //layer=ply \
 //thickness=0.18 //x=1.38 //y=0.91 //x2=1.34 //y2=0.755
r181 (  70 71 ) resistor r=176.904 //w=0.094 //l=0.345 //layer=ply \
 //thickness=0.18 //x=1.38 //y=0.91 //x2=1.38 //y2=1.255
r182 (  65 95 ) resistor r=10.701 //w=0.21 //l=0.115 //layer=ply \
 //thickness=0.18 //x=1.005 //y=1.41 //x2=0.89 //y2=1.41
r183 (  64 97 ) resistor r=5.52526 //w=0.168 //l=0.115 //layer=ply \
 //thickness=0.18 //x=1.225 //y=1.41 //x2=1.34 //y2=1.41
r184 (  63 94 ) resistor r=5.52526 //w=0.168 //l=0.115 //layer=ply \
 //thickness=0.18 //x=1.005 //y=0.755 //x2=0.89 //y2=0.755
r185 (  62 96 ) resistor r=5.52526 //w=0.168 //l=0.115 //layer=ply \
 //thickness=0.18 //x=1.225 //y=0.755 //x2=1.34 //y2=0.755
r186 (  62 63 ) resistor r=112.809 //w=0.094 //l=0.22 //layer=ply \
 //thickness=0.18 //x=1.225 //y=0.755 //x2=1.005 //y2=0.755
r187 (  60 67 ) resistor r=26.9307 //w=0.15 //l=0.106066 //layer=ply \
 //thickness=0.18 //x=1.26 //y=4.79 //x2=1.335 //y2=4.865
r188 (  60 61 ) resistor r=148.702 //w=0.094 //l=0.29 //layer=ply \
 //thickness=0.18 //x=1.26 //y=4.79 //x2=0.97 //y2=4.79
r189 (  57 61 ) resistor r=23.403 //w=0.284 //l=0.106066 //layer=ply \
 //thickness=0.18 //x=0.895 //y=4.865 //x2=0.97 //y2=4.79
r190 (  57 93 ) resistor r=26.3063 //w=0.284 //l=0.229783 //layer=ply \
 //thickness=0.18 //x=0.895 //y=4.865 //x2=0.74 //y2=4.7
r191 (  56 91 ) resistor r=19.1248 //w=0.302 //l=0.165 //layer=ply \
 //thickness=0.18 //x=0.85 //y=1.92 //x2=0.85 //y2=2.085
r192 (  55 95 ) resistor r=39.5823 //w=0.21 //l=0.173853 //layer=ply \
 //thickness=0.18 //x=0.85 //y=1.565 //x2=0.89 //y2=1.41
r193 (  55 56 ) resistor r=182.032 //w=0.094 //l=0.355 //layer=ply \
 //thickness=0.18 //x=0.85 //y=1.565 //x2=0.85 //y2=1.92
r194 (  54 95 ) resistor r=39.5823 //w=0.21 //l=0.173853 //layer=ply \
 //thickness=0.18 //x=0.85 //y=1.255 //x2=0.89 //y2=1.41
r195 (  53 94 ) resistor r=45.1352 //w=0.168 //l=0.173853 //layer=ply \
 //thickness=0.18 //x=0.85 //y=0.91 //x2=0.89 //y2=0.755
r196 (  53 54 ) resistor r=176.904 //w=0.094 //l=0.345 //layer=ply \
 //thickness=0.18 //x=0.85 //y=0.91 //x2=0.85 //y2=1.255
r197 (  52 86 ) resistor r=592.245 //w=0.094 //l=1.155 //layer=ply \
 //thickness=0.18 //x=3.67 //y=6.02 //x2=3.67 //y2=4.865
r198 (  51 76 ) resistor r=592.245 //w=0.094 //l=1.155 //layer=ply \
 //thickness=0.18 //x=3.23 //y=6.02 //x2=3.23 //y2=4.865
r199 (  50 67 ) resistor r=592.245 //w=0.094 //l=1.155 //layer=ply \
 //thickness=0.18 //x=1.335 //y=6.02 //x2=1.335 //y2=4.865
r200 (  49 57 ) resistor r=592.245 //w=0.094 //l=1.155 //layer=ply \
 //thickness=0.18 //x=0.895 //y=6.02 //x2=0.895 //y2=4.865
r201 (  48 81 ) resistor r=56.4043 //w=0.094 //l=0.11 //layer=ply \
 //thickness=0.18 //x=3.4 //y=1.37 //x2=3.51 //y2=1.37
r202 (  48 82 ) resistor r=56.4043 //w=0.094 //l=0.11 //layer=ply \
 //thickness=0.18 //x=3.4 //y=1.37 //x2=3.29 //y2=1.37
r203 (  47 64 ) resistor r=56.4043 //w=0.094 //l=0.11 //layer=ply \
 //thickness=0.18 //x=1.115 //y=1.41 //x2=1.225 //y2=1.41
r204 (  47 65 ) resistor r=56.4043 //w=0.094 //l=0.11 //layer=ply \
 //thickness=0.18 //x=1.115 //y=1.41 //x2=1.005 //y2=1.41
r205 (  45 104 ) resistor r=152 //w=0.17 //l=0.17 //layer=licon //count=1 \
 //x=3.33 //y=4.7 //x2=3.33 //y2=4.7
r206 (  35 99 ) resistor r=152 //w=0.17 //l=0.17 //layer=licon //count=1 \
 //x=3.33 //y=2.085 //x2=3.33 //y2=2.085
r207 (  32 93 ) resistor r=152 //w=0.17 //l=0.17 //layer=licon //count=1 \
 //x=0.74 //y=4.7 //x2=0.74 //y2=4.7
r208 (  21 90 ) resistor r=152 //w=0.17 //l=0.17 //layer=licon //count=1 \
 //x=0.74 //y=2.085 //x2=0.74 //y2=2.085
r209 (  19 45 ) resistor r=17.7968 //w=0.187 //l=0.26 //layer=li \
 //thickness=0.1 //x=3.33 //y=4.44 //x2=3.33 //y2=4.7
r210 (  18 19 ) resistor r=25.3262 //w=0.187 //l=0.37 //layer=li \
 //thickness=0.1 //x=3.33 //y=4.07 //x2=3.33 //y2=4.44
r211 (  17 18 ) resistor r=25.3262 //w=0.187 //l=0.37 //layer=li \
 //thickness=0.1 //x=3.33 //y=3.7 //x2=3.33 //y2=4.07
r212 (  16 17 ) resistor r=25.3262 //w=0.187 //l=0.37 //layer=li \
 //thickness=0.1 //x=3.33 //y=3.33 //x2=3.33 //y2=3.7
r213 (  15 16 ) resistor r=25.3262 //w=0.187 //l=0.37 //layer=li \
 //thickness=0.1 //x=3.33 //y=2.96 //x2=3.33 //y2=3.33
r214 (  14 15 ) resistor r=50.6524 //w=0.187 //l=0.74 //layer=li \
 //thickness=0.1 //x=3.33 //y=2.22 //x2=3.33 //y2=2.96
r215 (  14 35 ) resistor r=9.24064 //w=0.187 //l=0.135 //layer=li \
 //thickness=0.1 //x=3.33 //y=2.22 //x2=3.33 //y2=2.085
r216 (  13 32 ) resistor r=17.7968 //w=0.187 //l=0.26 //layer=li \
 //thickness=0.1 //x=0.74 //y=4.44 //x2=0.74 //y2=4.7