* SPICE3 file created from DFFSNX1.ext - technology: sky130A

.subckt DFFSNX1 Q QN D CLK SN VPB VNB
M1000 VNB a_168_157# a_112_73.t0 nshort w=-1.605u l=1.765u
+  ad=1.0746p pd=9.42u as=0p ps=0u
M1001 VNB a_343_383.t12 a_3368_73.t0 nshort w=-1.605u l=1.765u
+  ad=0p pd=0u as=0p ps=0u
M1002 Q SN VPB.t22 pshort w=2u l=0.15u
+  ad=1.74p pd=13.74u as=0p ps=0u
M1003 VPB.t1 a_168_157# a_217_1004.t1 pshort w=2u l=0.15u
+  ad=0p pd=0u as=0p ps=0u
M1004 VPB.t6 a_1265_943.t5 a_1905_1004.t6 pshort w=2u l=0.15u
+  ad=0p pd=0u as=0p ps=0u
M1005 Q a_1265_943.t6 VPB.t16 pshort w=2u l=0.15u
+  ad=0p pd=0u as=0p ps=0u
M1006 a_1905_1004.t1 a_217_1004.t6 VPB.t17 pshort w=2u l=0.15u
+  ad=0p pd=0u as=0p ps=0u
M1007 VPB.t7 a_343_383.t7 a_217_1004.t3 pshort w=2u l=0.15u
+  ad=0p pd=0u as=0p ps=0u
M1008 VPB.t24 a_217_1004.t7 a_343_383.t1 pshort w=2u l=0.15u
+  ad=0p pd=0u as=0p ps=0u
M1009 QN Q VPB.t14 pshort w=2u l=0.15u
+  ad=1.16p pd=9.16u as=0p ps=0u
M1010 VNB a_217_1004.t10 a_757_75.t0 nshort w=-1.605u l=1.765u
+  ad=0p pd=0u as=0p ps=0u
M1011 VNB a_1905_1004.t7 a_2702_73.t0 nshort w=-1.605u l=1.765u
+  ad=0p pd=0u as=0p ps=0u
M1012 Q a_1265_943.t7 a_4294_182.t1 nshort w=-1.605u l=1.765u
+  ad=0.1791p pd=1.57u as=0p ps=0u
M1013 VPB.t28 CLK a_343_383.t3 pshort w=2u l=0.15u
+  ad=0p pd=0u as=0p ps=0u
M1014 VPB.t10 a_1905_1004.t8 a_1265_943.t1 pshort w=2u l=0.15u
+  ad=0p pd=0u as=0p ps=0u
M1015 QN a_343_383.t9 VPB.t5 pshort w=2u l=0.15u
+  ad=0p pd=0u as=0p ps=0u
M1016 QN Q a_3368_73.t1 nshort w=-1.605u l=1.765u
+  ad=0.1791p pd=1.57u as=0p ps=0u
M1017 VPB.t3 QN Q pshort w=2u l=0.15u
+  ad=0p pd=0u as=0p ps=0u
M1018 VPB.t19 a_1265_943.t8 Q pshort w=2u l=0.15u
+  ad=0p pd=0u as=0p ps=0u
M1019 VNB a_217_1004.t5 a_1719_75.t0 nshort w=-1.605u l=1.765u
+  ad=0p pd=0u as=0p ps=0u
M1020 VPB.t18 a_1265_943.t9 a_343_383.t6 pshort w=2u l=0.15u
+  ad=0p pd=0u as=0p ps=0u
M1021 a_217_1004.t0 a_168_157# VPB.t0 pshort w=2u l=0.15u
+  ad=0p pd=0u as=0p ps=0u
M1022 a_1905_1004.t5 a_1265_943.t10 VPB.t4 pshort w=2u l=0.15u
+  ad=0p pd=0u as=0p ps=0u
M1023 VPB.t21 SN Q pshort w=2u l=0.15u
+  ad=0p pd=0u as=0p ps=0u
M1024 a_217_1004.t4 a_343_383.t10 VPB.t29 pshort w=2u l=0.15u
+  ad=0p pd=0u as=0p ps=0u
M1025 a_1905_1004.t3 SN VPB.t20 pshort w=2u l=0.15u
+  ad=0p pd=0u as=0p ps=0u
M1026 a_343_383.t0 a_217_1004.t8 VPB.t11 pshort w=2u l=0.15u
+  ad=0p pd=0u as=0p ps=0u
M1027 VPB.t8 a_217_1004.t9 a_1905_1004.t0 pshort w=2u l=0.15u
+  ad=0p pd=0u as=0p ps=0u
M1028 a_343_383.t2 CLK VPB.t27 pshort w=2u l=0.15u
+  ad=0p pd=0u as=0p ps=0u
M1029 a_1265_943.t0 a_1905_1004.t9 VPB.t9 pshort w=2u l=0.15u
+  ad=0p pd=0u as=0p ps=0u
M1030 VPB.t13 Q QN pshort w=2u l=0.15u
+  ad=0p pd=0u as=0p ps=0u
M1031 VNB QN a_4013_75.t0 nshort w=-1.605u l=1.765u
+  ad=0p pd=0u as=0p ps=0u
M1032 VPB.t26 CLK a_1265_943.t4 pshort w=2u l=0.15u
+  ad=0p pd=0u as=0p ps=0u
M1033 Q QN VPB.t2 pshort w=2u l=0.15u
+  ad=0p pd=0u as=0p ps=0u
M1034 a_343_383.t5 a_1265_943.t13 VPB.t15 pshort w=2u l=0.15u
+  ad=0p pd=0u as=0p ps=0u
M1035 VPB.t12 a_343_383.t11 QN pshort w=2u l=0.15u
+  ad=0p pd=0u as=0p ps=0u
M1036 VPB.t23 SN a_1905_1004.t2 pshort w=2u l=0.15u
+  ad=0p pd=0u as=0p ps=0u
M1037 a_1265_943.t3 CLK VPB.t25 pshort w=2u l=0.15u
+  ad=0p pd=0u as=0p ps=0u
C0 VPB CLK 0.59fF
C1 VPB Q 2.09fF
C2 VPB a_168_157# 0.08fF
C3 SN QN 0.43fF
C4 SN VPB 0.10fF
C5 QN VPB 1.45fF
C6 SN CLK 0.08fF
C7 SN Q 0.31fF
C8 QN Q 0.44fF
R0 VPB VPB.n453 126.832
R1 VPB.n49 VPB.n47 94.117
R2 VPB.n389 VPB.n387 94.117
R3 VPB.n308 VPB.n306 94.117
R4 VPB.n126 VPB.n124 94.117
R5 VPB.n261 VPB.n259 94.117
R6 VPB.n185 VPB.n184 84.554
R7 VPB.n319 VPB.n318 80.104
R8 VPB.n402 VPB.n401 80.104
R9 VPB.n312 VPB.n76 76
R10 VPB.n201 VPB.n200 76
R11 VPB.n206 VPB.n205 76
R12 VPB.n211 VPB.n210 76
R13 VPB.n218 VPB.n217 76
R14 VPB.n223 VPB.n222 76
R15 VPB.n228 VPB.n227 76
R16 VPB.n232 VPB.n231 76
R17 VPB.n236 VPB.n235 76
R18 VPB.n263 VPB.n262 76
R19 VPB.n268 VPB.n267 76
R20 VPB.n273 VPB.n272 76
R21 VPB.n280 VPB.n279 76
R22 VPB.n285 VPB.n284 76
R23 VPB.n290 VPB.n289 76
R24 VPB.n295 VPB.n294 76
R25 VPB.n309 VPB.n305 76
R26 VPB.n317 VPB.n316 76
R27 VPB.n322 VPB.n321 76
R28 VPB.n329 VPB.n328 76
R29 VPB.n334 VPB.n333 76
R30 VPB.n339 VPB.n338 76
R31 VPB.n346 VPB.n345 76
R32 VPB.n351 VPB.n350 76
R33 VPB.n356 VPB.n355 76
R34 VPB.n360 VPB.n359 76
R35 VPB.n364 VPB.n363 76
R36 VPB.n391 VPB.n390 76
R37 VPB.n395 VPB.n394 76
R38 VPB.n400 VPB.n399 76
R39 VPB.n405 VPB.n404 76
R40 VPB.n412 VPB.n411 76
R41 VPB.n417 VPB.n416 76
R42 VPB.n422 VPB.n421 76
R43 VPB.n429 VPB.n428 76
R44 VPB.n434 VPB.n433 76
R45 VPB.n446 VPB.n445 76
R46 VPB.n220 VPB.n219 75.654
R47 VPB.n348 VPB.n347 75.654
R48 VPB.n431 VPB.n430 75.654
R49 VPB.n21 VPB.n20 61.764
R50 VPB.n371 VPB.n370 61.764
R51 VPB.n83 VPB.n82 61.764
R52 VPB.n105 VPB.n104 61.764
R53 VPB.n243 VPB.n242 61.764
R54 VPB.n72 VPB.t0 55.106
R55 VPB.n39 VPB.t11 55.106
R56 VPB.n352 VPB.t17 55.106
R57 VPB.n149 VPB.t9 55.106
R58 VPB.n291 VPB.t5 55.106
R59 VPB.n224 VPB.t2 55.106
R60 VPB.n54 VPB.t7 55.106
R61 VPB.n396 VPB.t18 55.106
R62 VPB.n313 VPB.t6 55.106
R63 VPB.n131 VPB.t26 55.106
R64 VPB.n264 VPB.t13 55.106
R65 VPB.n188 VPB.t19 55.106
R66 VPB.n198 VPB.n197 48.952
R67 VPB.n270 VPB.n269 48.952
R68 VPB.n133 VPB.n132 48.952
R69 VPB.n326 VPB.n325 48.952
R70 VPB.n409 VPB.n408 48.952
R71 VPB.n56 VPB.n55 48.952
R72 VPB.n215 VPB.n214 44.502
R73 VPB.n287 VPB.n286 44.502
R74 VPB.n146 VPB.n145 44.502
R75 VPB.n343 VPB.n342 44.502
R76 VPB.n426 VPB.n425 44.502
R77 VPB.n69 VPB.n68 44.502
R78 VPB.n63 VPB.n14 40.824
R79 VPB.n424 VPB.n423 40.824
R80 VPB.n407 VPB.n406 40.824
R81 VPB.n341 VPB.n340 40.824
R82 VPB.n324 VPB.n323 40.824
R83 VPB.n140 VPB.n98 40.824
R84 VPB.n275 VPB.n274 40.824
R85 VPB.n213 VPB.n212 40.824
R86 VPB.n196 VPB.n195 40.824
R87 VPB.n193 VPB.n192 35.118
R88 VPB.n450 VPB.n446 20.452
R89 VPB.n180 VPB.n177 20.452
R90 VPB.n203 VPB.n202 17.801
R91 VPB.n277 VPB.n276 17.801
R92 VPB.n137 VPB.n136 17.801
R93 VPB.n331 VPB.n330 17.801
R94 VPB.n414 VPB.n413 17.801
R95 VPB.n60 VPB.n59 17.801
R96 VPB.n14 VPB.t29 14.282
R97 VPB.n14 VPB.t1 14.282
R98 VPB.n423 VPB.t27 14.282
R99 VPB.n423 VPB.t24 14.282
R100 VPB.n406 VPB.t15 14.282
R101 VPB.n406 VPB.t28 14.282
R102 VPB.n340 VPB.t20 14.282
R103 VPB.n340 VPB.t8 14.282
R104 VPB.n323 VPB.t4 14.282
R105 VPB.n323 VPB.t23 14.282
R106 VPB.n98 VPB.t25 14.282
R107 VPB.n98 VPB.t10 14.282
R108 VPB.n274 VPB.t14 14.282
R109 VPB.n274 VPB.t12 14.282
R110 VPB.n212 VPB.t22 14.282
R111 VPB.n212 VPB.t3 14.282
R112 VPB.n195 VPB.t16 14.282
R113 VPB.n195 VPB.t21 14.282
R114 VPB.n180 VPB.n179 13.653
R115 VPB.n179 VPB.n178 13.653
R116 VPB.n191 VPB.n190 13.653
R117 VPB.n190 VPB.n189 13.653
R118 VPB.n187 VPB.n186 13.653
R119 VPB.n186 VPB.n185 13.653
R120 VPB.n183 VPB.n182 13.653
R121 VPB.n182 VPB.n181 13.653
R122 VPB.n200 VPB.n199 13.653
R123 VPB.n199 VPB.n198 13.653
R124 VPB.n205 VPB.n204 13.653
R125 VPB.n204 VPB.n203 13.653
R126 VPB.n210 VPB.n209 13.653
R127 VPB.n209 VPB.n208 13.653
R128 VPB.n217 VPB.n216 13.653
R129 VPB.n216 VPB.n215 13.653
R130 VPB.n222 VPB.n221 13.653
R131 VPB.n221 VPB.n220 13.653
R132 VPB.n227 VPB.n226 13.653
R133 VPB.n226 VPB.n225 13.653
R134 VPB.n231 VPB.n230 13.653
R135 VPB.n230 VPB.n229 13.653
R136 VPB.n235 VPB.n234 13.653
R137 VPB.n234 VPB.n233 13.653
R138 VPB.n262 VPB.n261 13.653
R139 VPB.n261 VPB.n260 13.653
R140 VPB.n267 VPB.n266 13.653
R141 VPB.n266 VPB.n265 13.653
R142 VPB.n272 VPB.n271 13.653
R143 VPB.n271 VPB.n270 13.653
R144 VPB.n279 VPB.n278 13.653
R145 VPB.n278 VPB.n277 13.653
R146 VPB.n284 VPB.n283 13.653
R147 VPB.n283 VPB.n282 13.653
R148 VPB.n289 VPB.n288 13.653
R149 VPB.n288 VPB.n287 13.653
R150 VPB.n294 VPB.n293 13.653
R151 VPB.n293 VPB.n292 13.653
R152 VPB.n122 VPB.n121 13.653
R153 VPB.n121 VPB.n120 13.653
R154 VPB.n127 VPB.n126 13.653
R155 VPB.n126 VPB.n125 13.653
R156 VPB.n130 VPB.n129 13.653
R157 VPB.n129 VPB.n128 13.653
R158 VPB.n135 VPB.n134 13.653
R159 VPB.n134 VPB.n133 13.653
R160 VPB.n139 VPB.n138 13.653
R161 VPB.n138 VPB.n137 13.653
R162 VPB.n144 VPB.n143 13.653
R163 VPB.n143 VPB.n142 13.653
R164 VPB.n148 VPB.n147 13.653
R165 VPB.n147 VPB.n146 13.653
R166 VPB.n152 VPB.n151 13.653
R167 VPB.n151 VPB.n150 13.653
R168 VPB.n155 VPB.n154 13.653
R169 VPB.n154 VPB.n153 13.653
R170 VPB.n309 VPB.n308 13.653
R171 VPB.n308 VPB.n307 13.653
R172 VPB.n312 VPB.n311 13.653
R173 VPB.n311 VPB.n310 13.653
R174 VPB.n316 VPB.n315 13.653
R175 VPB.n315 VPB.n314 13.653
R176 VPB.n321 VPB.n320 13.653
R177 VPB.n320 VPB.n319 13.653
R178 VPB.n328 VPB.n327 13.653
R179 VPB.n327 VPB.n326 13.653
R180 VPB.n333 VPB.n332 13.653
R181 VPB.n332 VPB.n331 13.653
R182 VPB.n338 VPB.n337 13.653
R183 VPB.n337 VPB.n336 13.653
R184 VPB.n345 VPB.n344 13.653
R185 VPB.n344 VPB.n343 13.653
R186 VPB.n350 VPB.n349 13.653
R187 VPB.n349 VPB.n348 13.653
R188 VPB.n355 VPB.n354 13.653
R189 VPB.n354 VPB.n353 13.653
R190 VPB.n359 VPB.n358 13.653
R191 VPB.n358 VPB.n357 13.653
R192 VPB.n363 VPB.n362 13.653
R193 VPB.n362 VPB.n361 13.653
R194 VPB.n390 VPB.n389 13.653
R195 VPB.n389 VPB.n388 13.653
R196 VPB.n394 VPB.n393 13.653
R197 VPB.n393 VPB.n392 13.653
R198 VPB.n399 VPB.n398 13.653
R199 VPB.n398 VPB.n397 13.653
R200 VPB.n404 VPB.n403 13.653
R201 VPB.n403 VPB.n402 13.653
R202 VPB.n411 VPB.n410 13.653
R203 VPB.n410 VPB.n409 13.653
R204 VPB.n416 VPB.n415 13.653
R205 VPB.n415 VPB.n414 13.653
R206 VPB.n421 VPB.n420 13.653
R207 VPB.n420 VPB.n419 13.653
R208 VPB.n428 VPB.n427 13.653
R209 VPB.n427 VPB.n426 13.653
R210 VPB.n433 VPB.n432 13.653
R211 VPB.n432 VPB.n431 13.653
R212 VPB.n38 VPB.n37 13.653
R213 VPB.n37 VPB.n36 13.653
R214 VPB.n42 VPB.n41 13.653
R215 VPB.n41 VPB.n40 13.653
R216 VPB.n45 VPB.n44 13.653
R217 VPB.n44 VPB.n43 13.653
R218 VPB.n50 VPB.n49 13.653
R219 VPB.n49 VPB.n48 13.653
R220 VPB.n53 VPB.n52 13.653
R221 VPB.n52 VPB.n51 13.653
R222 VPB.n58 VPB.n57 13.653
R223 VPB.n57 VPB.n56 13.653
R224 VPB.n62 VPB.n61 13.653
R225 VPB.n61 VPB.n60 13.653
R226 VPB.n67 VPB.n66 13.653
R227 VPB.n66 VPB.n65 13.653
R228 VPB.n71 VPB.n70 13.653
R229 VPB.n70 VPB.n69 13.653
R230 VPB.n75 VPB.n74 13.653
R231 VPB.n74 VPB.n73 13.653
R232 VPB.n446 VPB.n0 13.653
R233 VPB VPB.n0 13.653
R234 VPB.n208 VPB.n207 13.35
R235 VPB.n282 VPB.n281 13.35
R236 VPB.n142 VPB.n141 13.35
R237 VPB.n336 VPB.n335 13.35
R238 VPB.n419 VPB.n418 13.35
R239 VPB.n65 VPB.n64 13.35
R240 VPB.n450 VPB.n449 13.276
R241 VPB.n449 VPB.n447 13.276
R242 VPB.n35 VPB.n17 13.276
R243 VPB.n17 VPB.n15 13.276
R244 VPB.n385 VPB.n367 13.276
R245 VPB.n367 VPB.n365 13.276
R246 VPB.n97 VPB.n79 13.276
R247 VPB.n79 VPB.n77 13.276
R248 VPB.n119 VPB.n101 13.276
R249 VPB.n101 VPB.n99 13.276
R250 VPB.n257 VPB.n239 13.276
R251 VPB.n239 VPB.n237 13.276
R252 VPB.n187 VPB.n183 13.276
R253 VPB.n262 VPB.n258 13.276
R254 VPB.n123 VPB.n122 13.276
R255 VPB.n127 VPB.n123 13.276
R256 VPB.n130 VPB.n127 13.276
R257 VPB.n139 VPB.n135 13.276
R258 VPB.n148 VPB.n144 13.276
R259 VPB.n155 VPB.n152 13.276
R260 VPB.n156 VPB.n155 13.276
R261 VPB.n309 VPB.n156 13.276
R262 VPB.n312 VPB.n309 13.276
R263 VPB.n390 VPB.n386 13.276
R264 VPB.n45 VPB.n42 13.276
R265 VPB.n46 VPB.n45 13.276
R266 VPB.n50 VPB.n46 13.276
R267 VPB.n53 VPB.n50 13.276
R268 VPB.n62 VPB.n58 13.276
R269 VPB.n71 VPB.n67 13.276
R270 VPB.n446 VPB.n75 13.276
R271 VPB.n177 VPB.n159 13.276
R272 VPB.n159 VPB.n157 13.276
R273 VPB.n164 VPB.n162 12.796
R274 VPB.n164 VPB.n163 12.564
R275 VPB.n42 VPB.n39 12.558
R276 VPB.n191 VPB.n188 12.2
R277 VPB.n313 VPB.n312 12.2
R278 VPB.n173 VPB.n172 12.198
R279 VPB.n170 VPB.n169 12.198
R280 VPB.n167 VPB.n166 12.198
R281 VPB.n135 VPB.n131 11.841
R282 VPB.n58 VPB.n54 11.841
R283 VPB.n149 VPB.n148 11.482
R284 VPB.n72 VPB.n71 11.482
R285 VPB.n177 VPB.n176 7.5
R286 VPB.n162 VPB.n161 7.5
R287 VPB.n166 VPB.n165 7.5
R288 VPB.n169 VPB.n168 7.5
R289 VPB.n159 VPB.n158 7.5
R290 VPB.n174 VPB.n160 7.5
R291 VPB.n239 VPB.n238 7.5
R292 VPB.n252 VPB.n251 7.5
R293 VPB.n246 VPB.n245 7.5
R294 VPB.n248 VPB.n247 7.5
R295 VPB.n241 VPB.n240 7.5
R296 VPB.n257 VPB.n256 7.5
R297 VPB.n101 VPB.n100 7.5
R298 VPB.n114 VPB.n113 7.5
R299 VPB.n108 VPB.n107 7.5
R300 VPB.n110 VPB.n109 7.5
R301 VPB.n103 VPB.n102 7.5
R302 VPB.n119 VPB.n118 7.5
R303 VPB.n79 VPB.n78 7.5
R304 VPB.n92 VPB.n91 7.5
R305 VPB.n86 VPB.n85 7.5
R306 VPB.n88 VPB.n87 7.5
R307 VPB.n81 VPB.n80 7.5
R308 VPB.n97 VPB.n96 7.5
R309 VPB.n367 VPB.n366 7.5
R310 VPB.n380 VPB.n379 7.5
R311 VPB.n374 VPB.n373 7.5
R312 VPB.n376 VPB.n375 7.5
R313 VPB.n369 VPB.n368 7.5
R314 VPB.n385 VPB.n384 7.5
R315 VPB.n17 VPB.n16 7.5
R316 VPB.n30 VPB.n29 7.5
R317 VPB.n24 VPB.n23 7.5
R318 VPB.n26 VPB.n25 7.5
R319 VPB.n19 VPB.n18 7.5
R320 VPB.n35 VPB.n34 7.5
R321 VPB.n449 VPB.n448 7.5
R322 VPB.n12 VPB.n11 7.5
R323 VPB.n6 VPB.n5 7.5
R324 VPB.n8 VPB.n7 7.5
R325 VPB.n2 VPB.n1 7.5
R326 VPB.n451 VPB.n450 7.5
R327 VPB.n46 VPB.n35 7.176
R328 VPB.n386 VPB.n385 7.176
R329 VPB.n156 VPB.n97 7.176
R330 VPB.n123 VPB.n119 7.176
R331 VPB.n258 VPB.n257 7.176
R332 VPB.n144 VPB.n140 6.817
R333 VPB.n67 VPB.n63 6.817
R334 VPB.n253 VPB.n250 6.729
R335 VPB.n249 VPB.n246 6.729
R336 VPB.n244 VPB.n241 6.729
R337 VPB.n115 VPB.n112 6.729
R338 VPB.n111 VPB.n108 6.729
R339 VPB.n106 VPB.n103 6.729
R340 VPB.n93 VPB.n90 6.729
R341 VPB.n89 VPB.n86 6.729
R342 VPB.n84 VPB.n81 6.729
R343 VPB.n381 VPB.n378 6.729
R344 VPB.n377 VPB.n374 6.729
R345 VPB.n372 VPB.n369 6.729
R346 VPB.n31 VPB.n28 6.729
R347 VPB.n27 VPB.n24 6.729
R348 VPB.n22 VPB.n19 6.729
R349 VPB.n13 VPB.n10 6.729
R350 VPB.n9 VPB.n6 6.729
R351 VPB.n4 VPB.n2 6.729
R352 VPB.n244 VPB.n243 6.728
R353 VPB.n249 VPB.n248 6.728
R354 VPB.n253 VPB.n252 6.728
R355 VPB.n256 VPB.n255 6.728
R356 VPB.n106 VPB.n105 6.728
R357 VPB.n111 VPB.n110 6.728
R358 VPB.n115 VPB.n114 6.728
R359 VPB.n118 VPB.n117 6.728
R360 VPB.n84 VPB.n83 6.728
R361 VPB.n89 VPB.n88 6.728
R362 VPB.n93 VPB.n92 6.728
R363 VPB.n96 VPB.n95 6.728
R364 VPB.n372 VPB.n371 6.728
R365 VPB.n377 VPB.n376 6.728
R366 VPB.n381 VPB.n380 6.728
R367 VPB.n384 VPB.n383 6.728
R368 VPB.n22 VPB.n21 6.728
R369 VPB.n27 VPB.n26 6.728
R370 VPB.n31 VPB.n30 6.728
R371 VPB.n34 VPB.n33 6.728
R372 VPB.n4 VPB.n3 6.728
R373 VPB.n9 VPB.n8 6.728
R374 VPB.n13 VPB.n12 6.728
R375 VPB.n452 VPB.n451 6.728
R376 VPB.n279 VPB.n275 6.458
R377 VPB.n140 VPB.n139 6.458
R378 VPB.n63 VPB.n62 6.458
R379 VPB.n176 VPB.n175 6.398
R380 VPB.n192 VPB.n180 6.112
R381 VPB.n192 VPB.n191 6.101
R382 VPB.n217 VPB.n213 4.305
R383 VPB.n345 VPB.n341 4.305
R384 VPB.n428 VPB.n424 4.305
R385 VPB.n200 VPB.n196 3.947
R386 VPB.n328 VPB.n324 3.947
R387 VPB.n411 VPB.n407 3.947
R388 VPB.n294 VPB.n291 1.794
R389 VPB.n152 VPB.n149 1.794
R390 VPB.n75 VPB.n72 1.794
R391 VPB.n267 VPB.n264 1.435
R392 VPB.n131 VPB.n130 1.435
R393 VPB.n54 VPB.n53 1.435
R394 VPB.n174 VPB.n167 1.402
R395 VPB.n174 VPB.n170 1.402
R396 VPB.n174 VPB.n171 1.402
R397 VPB.n174 VPB.n173 1.402
R398 VPB.n188 VPB.n187 1.076
R399 VPB.n316 VPB.n313 1.076
R400 VPB.n399 VPB.n396 1.076
R401 VPB.n175 VPB.n174 0.735
R402 VPB.n174 VPB.n164 0.735
R403 VPB.n227 VPB.n224 0.717
R404 VPB.n355 VPB.n352 0.717
R405 VPB.n39 VPB.n38 0.717
R406 VPB.n254 VPB.n253 0.387
R407 VPB.n254 VPB.n249 0.387
R408 VPB.n254 VPB.n244 0.387
R409 VPB.n255 VPB.n254 0.387
R410 VPB.n116 VPB.n115 0.387
R411 VPB.n116 VPB.n111 0.387
R412 VPB.n116 VPB.n106 0.387
R413 VPB.n117 VPB.n116 0.387
R414 VPB.n94 VPB.n93 0.387
R415 VPB.n94 VPB.n89 0.387
R416 VPB.n94 VPB.n84 0.387
R417 VPB.n95 VPB.n94 0.387
R418 VPB.n382 VPB.n381 0.387
R419 VPB.n382 VPB.n377 0.387
R420 VPB.n382 VPB.n372 0.387
R421 VPB.n383 VPB.n382 0.387
R422 VPB.n32 VPB.n31 0.387
R423 VPB.n32 VPB.n27 0.387
R424 VPB.n32 VPB.n22 0.387
R425 VPB.n33 VPB.n32 0.387
R426 VPB.n453 VPB.n13 0.387
R427 VPB.n453 VPB.n9 0.387
R428 VPB.n453 VPB.n4 0.387
R429 VPB.n453 VPB.n452 0.387
R430 VPB.n263 VPB.n236 0.272
R431 VPB.n297 VPB.n296 0.272
R432 VPB.n305 VPB.n304 0.272
R433 VPB.n391 VPB.n364 0.272
R434 VPB.n438 VPB.n437 0.272
R435 VPB.n445 VPB 0.198
R436 VPB.n194 VPB.n193 0.136
R437 VPB.n201 VPB.n194 0.136
R438 VPB.n206 VPB.n201 0.136
R439 VPB.n211 VPB.n206 0.136
R440 VPB.n218 VPB.n211 0.136
R441 VPB.n223 VPB.n218 0.136
R442 VPB.n228 VPB.n223 0.136
R443 VPB.n232 VPB.n228 0.136
R444 VPB.n236 VPB.n232 0.136
R445 VPB.n268 VPB.n263 0.136
R446 VPB.n273 VPB.n268 0.136
R447 VPB.n280 VPB.n273 0.136
R448 VPB.n285 VPB.n280 0.136
R449 VPB.n290 VPB.n285 0.136
R450 VPB.n295 VPB.n290 0.136
R451 VPB.n296 VPB.n295 0.136
R452 VPB.n298 VPB.n297 0.136
R453 VPB.n299 VPB.n298 0.136
R454 VPB.n300 VPB.n299 0.136
R455 VPB.n301 VPB.n300 0.136
R456 VPB.n302 VPB.n301 0.136
R457 VPB.n303 VPB.n302 0.136
R458 VPB.n304 VPB.n303 0.136
R459 VPB.n305 VPB.n76 0.136
R460 VPB.n317 VPB.n76 0.136
R461 VPB.n322 VPB.n317 0.136
R462 VPB.n329 VPB.n322 0.136
R463 VPB.n334 VPB.n329 0.136
R464 VPB.n339 VPB.n334 0.136
R465 VPB.n346 VPB.n339 0.136
R466 VPB.n351 VPB.n346 0.136
R467 VPB.n356 VPB.n351 0.136
R468 VPB.n360 VPB.n356 0.136
R469 VPB.n364 VPB.n360 0.136
R470 VPB.n395 VPB.n391 0.136
R471 VPB.n400 VPB.n395 0.136
R472 VPB.n405 VPB.n400 0.136
R473 VPB.n412 VPB.n405 0.136
R474 VPB.n417 VPB.n412 0.136
R475 VPB.n422 VPB.n417 0.136
R476 VPB.n429 VPB.n422 0.136
R477 VPB.n434 VPB.n429 0.136
R478 VPB.n435 VPB.n434 0.136
R479 VPB.n436 VPB.n435 0.136
R480 VPB.n437 VPB.n436 0.136
R481 VPB.n439 VPB.n438 0.136
R482 VPB.n440 VPB.n439 0.136
R483 VPB.n441 VPB.n440 0.136
R484 VPB.n442 VPB.n441 0.136
R485 VPB.n443 VPB.n442 0.136
R486 VPB.n444 VPB.n443 0.136
R487 VPB.n445 VPB.n444 0.136
R488 a_217_1004.n5 a_217_1004.t7 512.525
R489 a_217_1004.n3 a_217_1004.t9 512.525
R490 a_217_1004.n5 a_217_1004.t8 371.139
R491 a_217_1004.n3 a_217_1004.t6 371.139
R492 a_217_1004.n6 a_217_1004.n5 226.225
R493 a_217_1004.n4 a_217_1004.n3 225.866
R494 a_217_1004.n4 a_217_1004.t5 218.057
R495 a_217_1004.n6 a_217_1004.t10 217.698
R496 a_217_1004.n8 a_217_1004.n2 215.652
R497 a_217_1004.n10 a_217_1004.n8 147.503
R498 a_217_1004.n7 a_217_1004.n4 79.488
R499 a_217_1004.n8 a_217_1004.n7 77.314
R500 a_217_1004.n2 a_217_1004.n1 76.002
R501 a_217_1004.n7 a_217_1004.n6 76
R502 a_217_1004.n10 a_217_1004.n9 15.218
R503 a_217_1004.n0 a_217_1004.t3 14.282
R504 a_217_1004.n0 a_217_1004.t4 14.282
R505 a_217_1004.n1 a_217_1004.t1 14.282
R506 a_217_1004.n1 a_217_1004.t0 14.282
R507 a_217_1004.n2 a_217_1004.n0 12.85
R508 a_217_1004.n11 a_217_1004.n10 12.014
R509 a_1265_943.n6 a_1265_943.t10 454.685
R510 a_1265_943.n8 a_1265_943.t13 454.685
R511 a_1265_943.n4 a_1265_943.t6 454.685
R512 a_1265_943.n6 a_1265_943.t5 428.979
R513 a_1265_943.n8 a_1265_943.t9 428.979
R514 a_1265_943.n4 a_1265_943.t8 428.979
R515 a_1265_943.n7 a_1265_943.t11 248.006
R516 a_1265_943.n9 a_1265_943.t12 248.006
R517 a_1265_943.n5 a_1265_943.t7 248.006
R518 a_1265_943.n14 a_1265_943.n12 220.639
R519 a_1265_943.n12 a_1265_943.n3 135.994
R520 a_1265_943.n7 a_1265_943.n6 81.941
R521 a_1265_943.n9 a_1265_943.n8 81.941
R522 a_1265_943.n5 a_1265_943.n4 81.941
R523 a_1265_943.n11 a_1265_943.n5 81.396
R524 a_1265_943.n10 a_1265_943.n9 79.491
R525 a_1265_943.n3 a_1265_943.n2 76.002
R526 a_1265_943.n10 a_1265_943.n7 76
R527 a_1265_943.n12 a_1265_943.n11 76
R528 a_1265_943.n14 a_1265_943.n13 30
R529 a_1265_943.n15 a_1265_943.n0 24.383
R530 a_1265_943.n15 a_1265_943.n14 23.684
R531 a_1265_943.n1 a_1265_943.t4 14.282
R532 a_1265_943.n1 a_1265_943.t3 14.282
R533 a_1265_943.n2 a_1265_943.t1 14.282
R534 a_1265_943.n2 a_1265_943.t0 14.282
R535 a_1265_943.n3 a_1265_943.n1 12.85
R536 a_1265_943.n11 a_1265_943.n10 2.947
R537 a_1905_1004.n6 a_1905_1004.t8 480.392
R538 a_1905_1004.n6 a_1905_1004.t9 403.272
R539 a_1905_1004.n8 a_1905_1004.n5 233.952
R540 a_1905_1004.n7 a_1905_1004.t7 213.869
R541 a_1905_1004.n7 a_1905_1004.n6 161.6
R542 a_1905_1004.n8 a_1905_1004.n7 153.315
R543 a_1905_1004.n10 a_1905_1004.n8 143.492
R544 a_1905_1004.n4 a_1905_1004.n3 79.232
R545 a_1905_1004.n5 a_1905_1004.n4 63.152
R546 a_1905_1004.n10 a_1905_1004.n9 30
R547 a_1905_1004.n11 a_1905_1004.n0 24.383
R548 a_1905_1004.n11 a_1905_1004.n10 23.684
R549 a_1905_1004.n5 a_1905_1004.n1 16.08
R550 a_1905_1004.n4 a_1905_1004.n2 16.08
R551 a_1905_1004.n1 a_1905_1004.t6 14.282
R552 a_1905_1004.n1 a_1905_1004.t5 14.282
R553 a_1905_1004.n2 a_1905_1004.t2 14.282
R554 a_1905_1004.n2 a_1905_1004.t3 14.282
R555 a_1905_1004.n3 a_1905_1004.t0 14.282
R556 a_1905_1004.n3 a_1905_1004.t1 14.282
R557 a_1719_75.t0 a_1719_75.n3 117.777
R558 a_1719_75.n6 a_1719_75.n5 45.444
R559 a_1719_75.t0 a_1719_75.n6 21.213
R560 a_1719_75.t0 a_1719_75.n4 11.595
R561 a_1719_75.n2 a_1719_75.n0 8.543
R562 a_1719_75.t0 a_1719_75.n2 3.034
R563 a_1719_75.n2 a_1719_75.n1 0.443
R564 VNB VNB.n398 300.778
R565 VNB.n222 VNB.n221 199.897
R566 VNB.n100 VNB.n99 199.897
R567 VNB.n80 VNB.n79 199.897
R568 VNB.n329 VNB.n328 199.897
R569 VNB.n18 VNB.n17 199.897
R570 VNB.n112 VNB.n110 154.509
R571 VNB.n231 VNB.n229 154.509
R572 VNB.n338 VNB.n336 154.509
R573 VNB.n272 VNB.n270 154.509
R574 VNB.n44 VNB.n42 154.509
R575 VNB.n188 VNB.n187 147.75
R576 VNB.n370 VNB.n369 147.75
R577 VNB.n200 VNB.n197 121.366
R578 VNB.n124 VNB.n123 121.366
R579 VNB.n30 VNB.n28 121.366
R580 VNB.n56 VNB.n55 121.366
R581 VNB.n306 VNB.n305 85.559
R582 VNB.n251 VNB.n250 84.842
R583 VNB.n276 VNB.n69 76
R584 VNB.n385 VNB.n384 76
R585 VNB.n373 VNB.n372 76
R586 VNB.n368 VNB.n367 76
R587 VNB.n364 VNB.n363 76
R588 VNB.n360 VNB.n359 76
R589 VNB.n356 VNB.n355 76
R590 VNB.n352 VNB.n351 76
R591 VNB.n348 VNB.n347 76
R592 VNB.n344 VNB.n343 76
R593 VNB.n340 VNB.n339 76
R594 VNB.n318 VNB.n317 76
R595 VNB.n314 VNB.n313 76
R596 VNB.n310 VNB.n309 76
R597 VNB.n304 VNB.n303 76
R598 VNB.n300 VNB.n299 76
R599 VNB.n296 VNB.n295 76
R600 VNB.n292 VNB.n291 76
R601 VNB.n288 VNB.n287 76
R602 VNB.n284 VNB.n283 76
R603 VNB.n280 VNB.n279 76
R604 VNB.n273 VNB.n269 76
R605 VNB.n259 VNB.n258 76
R606 VNB.n255 VNB.n254 76
R607 VNB.n249 VNB.n248 76
R608 VNB.n245 VNB.n244 76
R609 VNB.n241 VNB.n240 76
R610 VNB.n237 VNB.n236 76
R611 VNB.n233 VNB.n232 76
R612 VNB.n211 VNB.n210 76
R613 VNB.n207 VNB.n206 76
R614 VNB.n203 VNB.n202 76
R615 VNB.n191 VNB.n190 76
R616 VNB.n186 VNB.n185 76
R617 VNB.n182 VNB.n181 76
R618 VNB.n178 VNB.n177 76
R619 VNB.n174 VNB.n173 76
R620 VNB.n35 VNB.n34 73.875
R621 VNB.n196 VNB.n195 64.552
R622 VNB.n33 VNB.n27 64.552
R623 VNB.n128 VNB.n89 63.835
R624 VNB.n60 VNB.n7 63.835
R625 VNB.n308 VNB.n307 41.971
R626 VNB.n200 VNB.n199 36.937
R627 VNB.n125 VNB.n124 36.937
R628 VNB.n30 VNB.n29 36.937
R629 VNB.n57 VNB.n56 36.937
R630 VNB.n253 VNB.n252 36.678
R631 VNB.n169 VNB.n168 35.118
R632 VNB.n199 VNB.n198 29.844
R633 VNB.n195 VNB.n194 28.421
R634 VNB.n89 VNB.n88 28.421
R635 VNB.n27 VNB.n26 28.421
R636 VNB.n7 VNB.n6 28.421
R637 VNB.n131 VNB.n130 27.855
R638 VNB.n63 VNB.n62 27.855
R639 VNB.n195 VNB.n193 25.263
R640 VNB.n89 VNB.n87 25.263
R641 VNB.n27 VNB.n25 25.263
R642 VNB.n7 VNB.n5 25.263
R643 VNB.n193 VNB.n192 24.383
R644 VNB.n87 VNB.n86 24.383
R645 VNB.n25 VNB.n24 24.383
R646 VNB.n5 VNB.n4 24.383
R647 VNB.n158 VNB.n155 20.452
R648 VNB.n386 VNB.n385 20.452
R649 VNB.n132 VNB.n131 16.721
R650 VNB.n64 VNB.n63 16.721
R651 VNB.n167 VNB.n166 13.653
R652 VNB.n166 VNB.n165 13.653
R653 VNB.n164 VNB.n163 13.653
R654 VNB.n163 VNB.n162 13.653
R655 VNB.n161 VNB.n160 13.653
R656 VNB.n160 VNB.n159 13.653
R657 VNB.n173 VNB.n172 13.653
R658 VNB.n172 VNB.n171 13.653
R659 VNB.n177 VNB.n176 13.653
R660 VNB.n176 VNB.n175 13.653
R661 VNB.n181 VNB.n180 13.653
R662 VNB.n180 VNB.n179 13.653
R663 VNB.n185 VNB.n184 13.653
R664 VNB.n184 VNB.n183 13.653
R665 VNB.n190 VNB.n189 13.653
R666 VNB.n189 VNB.n188 13.653
R667 VNB.n202 VNB.n201 13.653
R668 VNB.n201 VNB.n200 13.653
R669 VNB.n206 VNB.n205 13.653
R670 VNB.n205 VNB.n204 13.653
R671 VNB.n210 VNB.n209 13.653
R672 VNB.n209 VNB.n208 13.653
R673 VNB.n232 VNB.n231 13.653
R674 VNB.n231 VNB.n230 13.653
R675 VNB.n236 VNB.n235 13.653
R676 VNB.n235 VNB.n234 13.653
R677 VNB.n240 VNB.n239 13.653
R678 VNB.n239 VNB.n238 13.653
R679 VNB.n244 VNB.n243 13.653
R680 VNB.n243 VNB.n242 13.653
R681 VNB.n248 VNB.n247 13.653
R682 VNB.n247 VNB.n246 13.653
R683 VNB.n254 VNB.n253 13.653
R684 VNB.n258 VNB.n257 13.653
R685 VNB.n257 VNB.n256 13.653
R686 VNB.n108 VNB.n107 13.653
R687 VNB.n107 VNB.n106 13.653
R688 VNB.n113 VNB.n112 13.653
R689 VNB.n112 VNB.n111 13.653
R690 VNB.n116 VNB.n115 13.653
R691 VNB.n115 VNB.n114 13.653
R692 VNB.n119 VNB.n118 13.653
R693 VNB.n118 VNB.n117 13.653
R694 VNB.n122 VNB.n121 13.653
R695 VNB.n121 VNB.n120 13.653
R696 VNB.n127 VNB.n126 13.653
R697 VNB.n126 VNB.n125 13.653
R698 VNB.n133 VNB.n132 13.653
R699 VNB.n136 VNB.n135 13.653
R700 VNB.n135 VNB.n134 13.653
R701 VNB.n139 VNB.n138 13.653
R702 VNB.n138 VNB.n137 13.653
R703 VNB.n273 VNB.n272 13.653
R704 VNB.n272 VNB.n271 13.653
R705 VNB.n276 VNB.n275 13.653
R706 VNB.n275 VNB.n274 13.653
R707 VNB.n279 VNB.n278 13.653
R708 VNB.n278 VNB.n277 13.653
R709 VNB.n283 VNB.n282 13.653
R710 VNB.n282 VNB.n281 13.653
R711 VNB.n287 VNB.n286 13.653
R712 VNB.n286 VNB.n285 13.653
R713 VNB.n291 VNB.n290 13.653
R714 VNB.n290 VNB.n289 13.653
R715 VNB.n295 VNB.n294 13.653
R716 VNB.n294 VNB.n293 13.653
R717 VNB.n299 VNB.n298 13.653
R718 VNB.n298 VNB.n297 13.653
R719 VNB.n303 VNB.n302 13.653
R720 VNB.n302 VNB.n301 13.653
R721 VNB.n309 VNB.n308 13.653
R722 VNB.n313 VNB.n312 13.653
R723 VNB.n312 VNB.n311 13.653
R724 VNB.n317 VNB.n316 13.653
R725 VNB.n316 VNB.n315 13.653
R726 VNB.n339 VNB.n338 13.653
R727 VNB.n338 VNB.n337 13.653
R728 VNB.n343 VNB.n342 13.653
R729 VNB.n342 VNB.n341 13.653
R730 VNB.n347 VNB.n346 13.653
R731 VNB.n346 VNB.n345 13.653
R732 VNB.n351 VNB.n350 13.653
R733 VNB.n350 VNB.n349 13.653
R734 VNB.n355 VNB.n354 13.653
R735 VNB.n354 VNB.n353 13.653
R736 VNB.n359 VNB.n358 13.653
R737 VNB.n358 VNB.n357 13.653
R738 VNB.n363 VNB.n362 13.653
R739 VNB.n362 VNB.n361 13.653
R740 VNB.n367 VNB.n366 13.653
R741 VNB.n366 VNB.n365 13.653
R742 VNB.n372 VNB.n371 13.653
R743 VNB.n371 VNB.n370 13.653
R744 VNB.n32 VNB.n31 13.653
R745 VNB.n31 VNB.n30 13.653
R746 VNB.n37 VNB.n36 13.653
R747 VNB.n36 VNB.n35 13.653
R748 VNB.n40 VNB.n39 13.653
R749 VNB.n39 VNB.n38 13.653
R750 VNB.n45 VNB.n44 13.653
R751 VNB.n44 VNB.n43 13.653
R752 VNB.n48 VNB.n47 13.653
R753 VNB.n47 VNB.n46 13.653
R754 VNB.n51 VNB.n50 13.653
R755 VNB.n50 VNB.n49 13.653
R756 VNB.n54 VNB.n53 13.653
R757 VNB.n53 VNB.n52 13.653
R758 VNB.n59 VNB.n58 13.653
R759 VNB.n58 VNB.n57 13.653
R760 VNB.n65 VNB.n64 13.653
R761 VNB.n68 VNB.n67 13.653
R762 VNB.n67 VNB.n66 13.653
R763 VNB.n385 VNB.n0 13.653
R764 VNB VNB.n0 13.653
R765 VNB.n158 VNB.n157 13.653
R766 VNB.n157 VNB.n156 13.653
R767 VNB.n393 VNB.n390 13.577
R768 VNB.n143 VNB.n141 13.276
R769 VNB.n155 VNB.n143 13.276
R770 VNB.n214 VNB.n212 13.276
R771 VNB.n227 VNB.n214 13.276
R772 VNB.n92 VNB.n90 13.276
R773 VNB.n105 VNB.n92 13.276
R774 VNB.n72 VNB.n70 13.276
R775 VNB.n85 VNB.n72 13.276
R776 VNB.n321 VNB.n319 13.276
R777 VNB.n334 VNB.n321 13.276
R778 VNB.n10 VNB.n8 13.276
R779 VNB.n23 VNB.n10 13.276
R780 VNB.n167 VNB.n164 13.276
R781 VNB.n164 VNB.n161 13.276
R782 VNB.n232 VNB.n228 13.276
R783 VNB.n109 VNB.n108 13.276
R784 VNB.n113 VNB.n109 13.276
R785 VNB.n116 VNB.n113 13.276
R786 VNB.n119 VNB.n116 13.276
R787 VNB.n122 VNB.n119 13.276
R788 VNB.n127 VNB.n122 13.276
R789 VNB.n136 VNB.n133 13.276
R790 VNB.n139 VNB.n136 13.276
R791 VNB.n140 VNB.n139 13.276
R792 VNB.n273 VNB.n140 13.276
R793 VNB.n276 VNB.n273 13.276
R794 VNB.n279 VNB.n276 13.276
R795 VNB.n339 VNB.n335 13.276
R796 VNB.n40 VNB.n37 13.276
R797 VNB.n41 VNB.n40 13.276
R798 VNB.n45 VNB.n41 13.276
R799 VNB.n48 VNB.n45 13.276
R800 VNB.n51 VNB.n48 13.276
R801 VNB.n54 VNB.n51 13.276
R802 VNB.n59 VNB.n54 13.276
R803 VNB.n68 VNB.n65 13.276
R804 VNB.n385 VNB.n68 13.276
R805 VNB.n3 VNB.n1 13.276
R806 VNB.n386 VNB.n3 13.276
R807 VNB.n37 VNB.n33 12.02
R808 VNB.n128 VNB.n127 10.764
R809 VNB.n60 VNB.n59 10.764
R810 VNB.n395 VNB.n394 7.5
R811 VNB.n220 VNB.n219 7.5
R812 VNB.n216 VNB.n215 7.5
R813 VNB.n214 VNB.n213 7.5
R814 VNB.n227 VNB.n226 7.5
R815 VNB.n98 VNB.n97 7.5
R816 VNB.n94 VNB.n93 7.5
R817 VNB.n92 VNB.n91 7.5
R818 VNB.n105 VNB.n104 7.5
R819 VNB.n78 VNB.n77 7.5
R820 VNB.n74 VNB.n73 7.5
R821 VNB.n72 VNB.n71 7.5
R822 VNB.n85 VNB.n84 7.5
R823 VNB.n327 VNB.n326 7.5
R824 VNB.n323 VNB.n322 7.5
R825 VNB.n321 VNB.n320 7.5
R826 VNB.n334 VNB.n333 7.5
R827 VNB.n16 VNB.n15 7.5
R828 VNB.n12 VNB.n11 7.5
R829 VNB.n10 VNB.n9 7.5
R830 VNB.n23 VNB.n22 7.5
R831 VNB.n387 VNB.n386 7.5
R832 VNB.n3 VNB.n2 7.5
R833 VNB.n392 VNB.n391 7.5
R834 VNB.n149 VNB.n148 7.5
R835 VNB.n145 VNB.n144 7.5
R836 VNB.n143 VNB.n142 7.5
R837 VNB.n155 VNB.n154 7.5
R838 VNB.n228 VNB.n227 7.176
R839 VNB.n109 VNB.n105 7.176
R840 VNB.n140 VNB.n85 7.176
R841 VNB.n335 VNB.n334 7.176
R842 VNB.n41 VNB.n23 7.176
R843 VNB.n397 VNB.n395 7.011
R844 VNB.n223 VNB.n220 7.011
R845 VNB.n218 VNB.n216 7.011
R846 VNB.n101 VNB.n98 7.011
R847 VNB.n96 VNB.n94 7.011
R848 VNB.n81 VNB.n78 7.011
R849 VNB.n76 VNB.n74 7.011
R850 VNB.n330 VNB.n327 7.011
R851 VNB.n325 VNB.n323 7.011
R852 VNB.n19 VNB.n16 7.011
R853 VNB.n14 VNB.n12 7.011
R854 VNB.n151 VNB.n149 7.011
R855 VNB.n147 VNB.n145 7.011
R856 VNB.n226 VNB.n225 7.01
R857 VNB.n218 VNB.n217 7.01
R858 VNB.n223 VNB.n222 7.01
R859 VNB.n104 VNB.n103 7.01
R860 VNB.n96 VNB.n95 7.01
R861 VNB.n101 VNB.n100 7.01
R862 VNB.n84 VNB.n83 7.01
R863 VNB.n76 VNB.n75 7.01
R864 VNB.n81 VNB.n80 7.01
R865 VNB.n333 VNB.n332 7.01
R866 VNB.n325 VNB.n324 7.01
R867 VNB.n330 VNB.n329 7.01
R868 VNB.n22 VNB.n21 7.01
R869 VNB.n14 VNB.n13 7.01
R870 VNB.n19 VNB.n18 7.01
R871 VNB.n154 VNB.n153 7.01
R872 VNB.n147 VNB.n146 7.01
R873 VNB.n151 VNB.n150 7.01
R874 VNB.n397 VNB.n396 7.01
R875 VNB.n393 VNB.n392 6.788
R876 VNB.n388 VNB.n387 6.788
R877 VNB.n168 VNB.n158 6.111
R878 VNB.n168 VNB.n167 6.1
R879 VNB.n254 VNB.n251 2.511
R880 VNB.n133 VNB.n128 2.511
R881 VNB.n65 VNB.n60 2.511
R882 VNB.n131 VNB.n129 1.99
R883 VNB.n63 VNB.n61 1.99
R884 VNB.n202 VNB.n196 1.255
R885 VNB.n309 VNB.n306 1.255
R886 VNB.n33 VNB.n32 1.255
R887 VNB.n398 VNB.n389 0.921
R888 VNB.n398 VNB.n393 0.476
R889 VNB.n398 VNB.n388 0.475
R890 VNB.n233 VNB.n211 0.272
R891 VNB.n261 VNB.n260 0.272
R892 VNB.n269 VNB.n268 0.272
R893 VNB.n340 VNB.n318 0.272
R894 VNB.n377 VNB.n376 0.272
R895 VNB.n224 VNB.n218 0.246
R896 VNB.n225 VNB.n224 0.246
R897 VNB.n224 VNB.n223 0.246
R898 VNB.n102 VNB.n96 0.246
R899 VNB.n103 VNB.n102 0.246
R900 VNB.n102 VNB.n101 0.246
R901 VNB.n82 VNB.n76 0.246
R902 VNB.n83 VNB.n82 0.246
R903 VNB.n82 VNB.n81 0.246