* SPICE3 file created from DFFSNRNQX1.ext - technology: sky130A

.subckt DFFSNRNQX1 Q D CLK SN RN VPB VNB
M1000 Q SN VPB.t24 pshort w=2u l=0.15u
+  ad=1.74p pd=13.74u as=0p ps=0u
M1001 VNB a_4125_1004.t8 a_4901_75.t0 nshort w=-1.605u l=1.765u
+  ad=1.0746p pd=9.42u as=0p ps=0u
M1002 VPB.t28 a_147_159# a_277_1004.t6 pshort w=2u l=0.15u
+  ad=0p pd=0u as=0p ps=0u
M1003 a_599_943.t4 CLK VPB.t32 pshort w=2u l=0.15u
+  ad=0p pd=0u as=0p ps=0u
M1004 VPB.t33 CLK a_1561_943.t4 pshort w=2u l=0.15u
+  ad=0p pd=0u as=0p ps=0u
M1005 VPB.t7 a_277_1004.t7 a_2201_1004.t6 pshort w=2u l=0.15u
+  ad=0p pd=0u as=0p ps=0u
M1006 VPB.t6 RN a_277_1004.t1 pshort w=2u l=0.15u
+  ad=0p pd=0u as=0p ps=0u
M1007 a_599_943.t0 a_1561_943.t8 VPB.t14 pshort w=2u l=0.15u
+  ad=0p pd=0u as=0p ps=0u
M1008 VPB.t22 SN a_2201_1004.t1 pshort w=2u l=0.15u
+  ad=0p pd=0u as=0p ps=0u
M1009 VPB.t5 RN a_1561_943.t1 pshort w=2u l=0.15u
+  ad=0p pd=0u as=0p ps=0u
M1010 a_4125_1004.t6 a_599_943.t7 VPB.t27 pshort w=2u l=0.15u
+  ad=0p pd=0u as=0p ps=0u
M1011 a_1561_943.t3 CLK VPB.t31 pshort w=2u l=0.15u
+  ad=0p pd=0u as=0p ps=0u
M1012 a_4125_1004.t3 Q VPB.t18 pshort w=2u l=0.15u
+  ad=0p pd=0u as=0p ps=0u
M1013 VNB a_147_159# a_91_75.t0 nshort w=-1.605u l=1.765u
+  ad=0p pd=0u as=0p ps=0u
M1014 VPB.t10 a_599_943.t8 a_277_1004.t3 pshort w=2u l=0.15u
+  ad=0p pd=0u as=0p ps=0u
M1015 Q a_1561_943.t10 a_5182_182.t1 nshort w=-1.605u l=1.765u
+  ad=0.1791p pd=1.57u as=0p ps=0u
M1016 a_4125_1004.t1 RN VPB.t3 pshort w=2u l=0.15u
+  ad=0p pd=0u as=0p ps=0u
M1017 VPB.t8 a_1561_943.t11 a_2201_1004.t4 pshort w=2u l=0.15u
+  ad=0p pd=0u as=0p ps=0u
M1018 a_1561_943.t6 a_2201_1004.t8 VPB.t35 pshort w=2u l=0.15u
+  ad=0p pd=0u as=0p ps=0u
M1019 VPB.t11 a_4125_1004.t7 Q pshort w=2u l=0.15u
+  ad=0p pd=0u as=0p ps=0u
M1020 a_277_1004.t5 a_147_159# VPB.t29 pshort w=2u l=0.15u
+  ad=0p pd=0u as=0p ps=0u
M1021 VPB.t16 a_277_1004.t10 a_599_943.t6 pshort w=2u l=0.15u
+  ad=0p pd=0u as=0p ps=0u
M1022 VPB.t25 a_1561_943.t12 a_599_943.t2 pshort w=2u l=0.15u
+  ad=0p pd=0u as=0p ps=0u
M1023 VPB.t23 SN Q pshort w=2u l=0.15u
+  ad=0p pd=0u as=0p ps=0u
M1024 VNB a_277_1004.t8 a_2015_75.t0 nshort w=-1.605u l=1.765u
+  ad=0p pd=0u as=0p ps=0u
M1025 a_277_1004.t0 RN VPB.t1 pshort w=2u l=0.15u
+  ad=0p pd=0u as=0p ps=0u
M1026 VPB.t30 CLK a_599_943.t3 pshort w=2u l=0.15u
+  ad=0p pd=0u as=0p ps=0u
M1027 a_2201_1004.t0 SN VPB.t21 pshort w=2u l=0.15u
+  ad=0p pd=0u as=0p ps=0u
M1028 a_1561_943.t0 RN VPB.t4 pshort w=2u l=0.15u
+  ad=0p pd=0u as=0p ps=0u
M1029 VPB.t2 RN a_4125_1004.t0 pshort w=2u l=0.15u
+  ad=0p pd=0u as=0p ps=0u
M1030 VPB.t12 a_1561_943.t13 Q pshort w=2u l=0.15u
+  ad=0p pd=0u as=0p ps=0u
M1031 a_599_943.t5 a_277_1004.t11 VPB.t20 pshort w=2u l=0.15u
+  ad=0p pd=0u as=0p ps=0u
M1032 a_277_1004.t2 a_599_943.t10 VPB.t9 pshort w=2u l=0.15u
+  ad=0p pd=0u as=0p ps=0u
M1033 VNB a_2201_1004.t7 a_2977_75.t0 nshort w=-1.605u l=1.765u
+  ad=0p pd=0u as=0p ps=0u
M1034 VNB a_277_1004.t9 a_1053_75.t0 nshort w=-1.605u l=1.765u
+  ad=0p pd=0u as=0p ps=0u
M1035 a_2201_1004.t5 a_277_1004.t12 VPB.t19 pshort w=2u l=0.15u
+  ad=0p pd=0u as=0p ps=0u
M1036 a_2201_1004.t3 a_1561_943.t14 VPB.t13 pshort w=2u l=0.15u
+  ad=0p pd=0u as=0p ps=0u
M1037 VPB.t26 a_599_943.t12 a_4125_1004.t5 pshort w=2u l=0.15u
+  ad=0p pd=0u as=0p ps=0u
M1038 VPB.t17 Q a_4125_1004.t2 pshort w=2u l=0.15u
+  ad=0p pd=0u as=0p ps=0u
M1039 Q a_4125_1004.t9 VPB.t0 pshort w=2u l=0.15u
+  ad=0p pd=0u as=0p ps=0u
M1040 Q a_1561_943.t15 VPB.t15 pshort w=2u l=0.15u
+  ad=0p pd=0u as=0p ps=0u
M1041 VNB a_599_943.t9 a_3939_75.t0 nshort w=-1.605u l=1.765u
+  ad=0p pd=0u as=0p ps=0u
M1042 VPB.t34 a_2201_1004.t9 a_1561_943.t5 pshort w=2u l=0.15u
+  ad=0p pd=0u as=0p ps=0u
C0 SN RN 0.37fF
C1 VPB Q 1.83fF
C2 CLK VPB 0.10fF
C3 RN a_147_159# 0.18fF
C4 SN VPB 0.10fF
C5 RN VPB 1.10fF
C6 VPB a_147_159# 0.08fF
C7 SN Q 0.38fF
C8 SN CLK 0.48fF
C9 RN Q 0.18fF
C10 RN CLK 0.73fF
R0 VPB VPB.n513 126.832
R1 VPB.n40 VPB.n38 94.117
R2 VPB.n435 VPB.n433 94.117
R3 VPB.n352 VPB.n350 94.117
R4 VPB.n129 VPB.n127 94.117
R5 VPB.n275 VPB.n273 94.117
R6 VPB.n199 VPB.n198 84.554
R7 VPB.n288 VPB.n287 80.104
R8 VPB.n139 VPB.n138 80.104
R9 VPB.n365 VPB.n364 80.104
R10 VPB.n448 VPB.n447 80.104
R11 VPB.n50 VPB.n49 80.104
R12 VPB.n215 VPB.n214 76
R13 VPB.n220 VPB.n219 76
R14 VPB.n225 VPB.n224 76
R15 VPB.n232 VPB.n231 76
R16 VPB.n237 VPB.n236 76
R17 VPB.n242 VPB.n241 76
R18 VPB.n246 VPB.n245 76
R19 VPB.n250 VPB.n249 76
R20 VPB.n277 VPB.n276 76
R21 VPB.n281 VPB.n280 76
R22 VPB.n286 VPB.n285 76
R23 VPB.n291 VPB.n290 76
R24 VPB.n298 VPB.n297 76
R25 VPB.n303 VPB.n302 76
R26 VPB.n308 VPB.n307 76
R27 VPB.n315 VPB.n314 76
R28 VPB.n320 VPB.n319 76
R29 VPB.n325 VPB.n324 76
R30 VPB.n329 VPB.n328 76
R31 VPB.n333 VPB.n332 76
R32 VPB.n348 VPB.n345 76
R33 VPB.n354 VPB.n353 76
R34 VPB.n358 VPB.n357 76
R35 VPB.n363 VPB.n362 76
R36 VPB.n368 VPB.n367 76
R37 VPB.n375 VPB.n374 76
R38 VPB.n380 VPB.n379 76
R39 VPB.n385 VPB.n384 76
R40 VPB.n392 VPB.n391 76
R41 VPB.n397 VPB.n396 76
R42 VPB.n402 VPB.n401 76
R43 VPB.n406 VPB.n405 76
R44 VPB.n410 VPB.n409 76
R45 VPB.n437 VPB.n436 76
R46 VPB.n441 VPB.n440 76
R47 VPB.n446 VPB.n445 76
R48 VPB.n451 VPB.n450 76
R49 VPB.n458 VPB.n457 76
R50 VPB.n463 VPB.n462 76
R51 VPB.n468 VPB.n467 76
R52 VPB.n475 VPB.n474 76
R53 VPB.n480 VPB.n479 76
R54 VPB.n485 VPB.n484 76
R55 VPB.n489 VPB.n488 76
R56 VPB.n493 VPB.n492 76
R57 VPB.n506 VPB.n505 76
R58 VPB.n234 VPB.n233 75.654
R59 VPB.n317 VPB.n316 75.654
R60 VPB.n161 VPB.n160 75.654
R61 VPB.n394 VPB.n393 75.654
R62 VPB.n477 VPB.n476 75.654
R63 VPB.n72 VPB.n71 75.654
R64 VPB.n22 VPB.n21 61.764
R65 VPB.n417 VPB.n416 61.764
R66 VPB.n88 VPB.n87 61.764
R67 VPB.n111 VPB.n110 61.764
R68 VPB.n257 VPB.n256 61.764
R69 VPB.n78 VPB.t29 55.106
R70 VPB.n481 VPB.t20 55.106
R71 VPB.n398 VPB.t19 55.106
R72 VPB.n167 VPB.t35 55.106
R73 VPB.n321 VPB.t27 55.106
R74 VPB.n238 VPB.t0 55.106
R75 VPB.n45 VPB.t10 55.106
R76 VPB.n442 VPB.t25 55.106
R77 VPB.n359 VPB.t8 55.106
R78 VPB.n134 VPB.t5 55.106
R79 VPB.n282 VPB.t17 55.106
R80 VPB.n202 VPB.t12 55.106
R81 VPB.n212 VPB.n211 48.952
R82 VPB.n295 VPB.n294 48.952
R83 VPB.n143 VPB.n142 48.952
R84 VPB.n372 VPB.n371 48.952
R85 VPB.n455 VPB.n454 48.952
R86 VPB.n54 VPB.n53 48.952
R87 VPB.n229 VPB.n228 44.502
R88 VPB.n312 VPB.n311 44.502
R89 VPB.n157 VPB.n156 44.502
R90 VPB.n389 VPB.n388 44.502
R91 VPB.n472 VPB.n471 44.502
R92 VPB.n68 VPB.n67 44.502
R93 VPB.n66 VPB.n14 40.824
R94 VPB.n57 VPB.n15 40.824
R95 VPB.n470 VPB.n469 40.824
R96 VPB.n453 VPB.n452 40.824
R97 VPB.n387 VPB.n386 40.824
R98 VPB.n370 VPB.n369 40.824
R99 VPB.n155 VPB.n103 40.824
R100 VPB.n146 VPB.n104 40.824
R101 VPB.n310 VPB.n309 40.824
R102 VPB.n293 VPB.n292 40.824
R103 VPB.n227 VPB.n226 40.824
R104 VPB.n210 VPB.n209 40.824
R105 VPB.n207 VPB.n206 35.118
R106 VPB.n510 VPB.n506 20.452
R107 VPB.n194 VPB.n191 20.452
R108 VPB.n217 VPB.n216 17.801
R109 VPB.n300 VPB.n299 17.801
R110 VPB.n148 VPB.n147 17.801
R111 VPB.n377 VPB.n376 17.801
R112 VPB.n460 VPB.n459 17.801
R113 VPB.n59 VPB.n58 17.801
R114 VPB.n14 VPB.t1 14.282
R115 VPB.n14 VPB.t28 14.282
R116 VPB.n15 VPB.t9 14.282
R117 VPB.n15 VPB.t6 14.282
R118 VPB.n469 VPB.t32 14.282
R119 VPB.n469 VPB.t16 14.282
R120 VPB.n452 VPB.t14 14.282
R121 VPB.n452 VPB.t30 14.282
R122 VPB.n386 VPB.t21 14.282
R123 VPB.n386 VPB.t7 14.282
R124 VPB.n369 VPB.t13 14.282
R125 VPB.n369 VPB.t22 14.282
R126 VPB.n103 VPB.t31 14.282
R127 VPB.n103 VPB.t34 14.282
R128 VPB.n104 VPB.t4 14.282
R129 VPB.n104 VPB.t33 14.282
R130 VPB.n309 VPB.t3 14.282
R131 VPB.n309 VPB.t26 14.282
R132 VPB.n292 VPB.t18 14.282
R133 VPB.n292 VPB.t2 14.282
R134 VPB.n226 VPB.t24 14.282
R135 VPB.n226 VPB.t11 14.282
R136 VPB.n209 VPB.t15 14.282
R137 VPB.n209 VPB.t23 14.282
R138 VPB.n194 VPB.n193 13.653
R139 VPB.n193 VPB.n192 13.653
R140 VPB.n205 VPB.n204 13.653
R141 VPB.n204 VPB.n203 13.653
R142 VPB.n201 VPB.n200 13.653
R143 VPB.n200 VPB.n199 13.653
R144 VPB.n197 VPB.n196 13.653
R145 VPB.n196 VPB.n195 13.653
R146 VPB.n214 VPB.n213 13.653
R147 VPB.n213 VPB.n212 13.653
R148 VPB.n219 VPB.n218 13.653
R149 VPB.n218 VPB.n217 13.653
R150 VPB.n224 VPB.n223 13.653
R151 VPB.n223 VPB.n222 13.653
R152 VPB.n231 VPB.n230 13.653
R153 VPB.n230 VPB.n229 13.653
R154 VPB.n236 VPB.n235 13.653
R155 VPB.n235 VPB.n234 13.653
R156 VPB.n241 VPB.n240 13.653
R157 VPB.n240 VPB.n239 13.653
R158 VPB.n245 VPB.n244 13.653
R159 VPB.n244 VPB.n243 13.653
R160 VPB.n249 VPB.n248 13.653
R161 VPB.n248 VPB.n247 13.653
R162 VPB.n276 VPB.n275 13.653
R163 VPB.n275 VPB.n274 13.653
R164 VPB.n280 VPB.n279 13.653
R165 VPB.n279 VPB.n278 13.653
R166 VPB.n285 VPB.n284 13.653
R167 VPB.n284 VPB.n283 13.653
R168 VPB.n290 VPB.n289 13.653
R169 VPB.n289 VPB.n288 13.653
R170 VPB.n297 VPB.n296 13.653
R171 VPB.n296 VPB.n295 13.653
R172 VPB.n302 VPB.n301 13.653
R173 VPB.n301 VPB.n300 13.653
R174 VPB.n307 VPB.n306 13.653
R175 VPB.n306 VPB.n305 13.653
R176 VPB.n314 VPB.n313 13.653
R177 VPB.n313 VPB.n312 13.653
R178 VPB.n319 VPB.n318 13.653
R179 VPB.n318 VPB.n317 13.653
R180 VPB.n324 VPB.n323 13.653
R181 VPB.n323 VPB.n322 13.653
R182 VPB.n328 VPB.n327 13.653
R183 VPB.n327 VPB.n326 13.653
R184 VPB.n332 VPB.n331 13.653
R185 VPB.n331 VPB.n330 13.653
R186 VPB.n130 VPB.n129 13.653
R187 VPB.n129 VPB.n128 13.653
R188 VPB.n133 VPB.n132 13.653
R189 VPB.n132 VPB.n131 13.653
R190 VPB.n137 VPB.n136 13.653
R191 VPB.n136 VPB.n135 13.653
R192 VPB.n141 VPB.n140 13.653
R193 VPB.n140 VPB.n139 13.653
R194 VPB.n145 VPB.n144 13.653
R195 VPB.n144 VPB.n143 13.653
R196 VPB.n150 VPB.n149 13.653
R197 VPB.n149 VPB.n148 13.653
R198 VPB.n154 VPB.n153 13.653
R199 VPB.n153 VPB.n152 13.653
R200 VPB.n159 VPB.n158 13.653
R201 VPB.n158 VPB.n157 13.653
R202 VPB.n163 VPB.n162 13.653
R203 VPB.n162 VPB.n161 13.653
R204 VPB.n166 VPB.n165 13.653
R205 VPB.n165 VPB.n164 13.653
R206 VPB.n170 VPB.n169 13.653
R207 VPB.n169 VPB.n168 13.653
R208 VPB.n348 VPB.n347 13.653
R209 VPB.n347 VPB.n346 13.653
R210 VPB.n353 VPB.n352 13.653
R211 VPB.n352 VPB.n351 13.653
R212 VPB.n357 VPB.n356 13.653
R213 VPB.n356 VPB.n355 13.653
R214 VPB.n362 VPB.n361 13.653
R215 VPB.n361 VPB.n360 13.653
R216 VPB.n367 VPB.n366 13.653
R217 VPB.n366 VPB.n365 13.653
R218 VPB.n374 VPB.n373 13.653
R219 VPB.n373 VPB.n372 13.653
R220 VPB.n379 VPB.n378 13.653
R221 VPB.n378 VPB.n377 13.653
R222 VPB.n384 VPB.n383 13.653
R223 VPB.n383 VPB.n382 13.653
R224 VPB.n391 VPB.n390 13.653
R225 VPB.n390 VPB.n389 13.653
R226 VPB.n396 VPB.n395 13.653
R227 VPB.n395 VPB.n394 13.653
R228 VPB.n401 VPB.n400 13.653
R229 VPB.n400 VPB.n399 13.653
R230 VPB.n405 VPB.n404 13.653
R231 VPB.n404 VPB.n403 13.653
R232 VPB.n409 VPB.n408 13.653
R233 VPB.n408 VPB.n407 13.653
R234 VPB.n436 VPB.n435 13.653
R235 VPB.n435 VPB.n434 13.653
R236 VPB.n440 VPB.n439 13.653
R237 VPB.n439 VPB.n438 13.653
R238 VPB.n445 VPB.n444 13.653
R239 VPB.n444 VPB.n443 13.653
R240 VPB.n450 VPB.n449 13.653
R241 VPB.n449 VPB.n448 13.653
R242 VPB.n457 VPB.n456 13.653
R243 VPB.n456 VPB.n455 13.653
R244 VPB.n462 VPB.n461 13.653
R245 VPB.n461 VPB.n460 13.653
R246 VPB.n467 VPB.n466 13.653
R247 VPB.n466 VPB.n465 13.653
R248 VPB.n474 VPB.n473 13.653
R249 VPB.n473 VPB.n472 13.653
R250 VPB.n479 VPB.n478 13.653
R251 VPB.n478 VPB.n477 13.653
R252 VPB.n484 VPB.n483 13.653
R253 VPB.n483 VPB.n482 13.653
R254 VPB.n488 VPB.n487 13.653
R255 VPB.n487 VPB.n486 13.653
R256 VPB.n492 VPB.n491 13.653
R257 VPB.n491 VPB.n490 13.653
R258 VPB.n41 VPB.n40 13.653
R259 VPB.n40 VPB.n39 13.653
R260 VPB.n44 VPB.n43 13.653
R261 VPB.n43 VPB.n42 13.653
R262 VPB.n48 VPB.n47 13.653
R263 VPB.n47 VPB.n46 13.653
R264 VPB.n52 VPB.n51 13.653
R265 VPB.n51 VPB.n50 13.653
R266 VPB.n56 VPB.n55 13.653
R267 VPB.n55 VPB.n54 13.653
R268 VPB.n61 VPB.n60 13.653
R269 VPB.n60 VPB.n59 13.653
R270 VPB.n65 VPB.n64 13.653
R271 VPB.n64 VPB.n63 13.653
R272 VPB.n70 VPB.n69 13.653
R273 VPB.n69 VPB.n68 13.653
R274 VPB.n74 VPB.n73 13.653
R275 VPB.n73 VPB.n72 13.653
R276 VPB.n77 VPB.n76 13.653
R277 VPB.n76 VPB.n75 13.653
R278 VPB.n81 VPB.n80 13.653
R279 VPB.n80 VPB.n79 13.653
R280 VPB.n506 VPB.n0 13.653
R281 VPB VPB.n0 13.653
R282 VPB.n222 VPB.n221 13.35
R283 VPB.n305 VPB.n304 13.35
R284 VPB.n152 VPB.n151 13.35
R285 VPB.n382 VPB.n381 13.35
R286 VPB.n465 VPB.n464 13.35
R287 VPB.n63 VPB.n62 13.35
R288 VPB.n510 VPB.n509 13.276
R289 VPB.n509 VPB.n507 13.276
R290 VPB.n36 VPB.n18 13.276
R291 VPB.n18 VPB.n16 13.276
R292 VPB.n431 VPB.n413 13.276
R293 VPB.n413 VPB.n411 13.276
R294 VPB.n102 VPB.n84 13.276
R295 VPB.n84 VPB.n82 13.276
R296 VPB.n125 VPB.n107 13.276
R297 VPB.n107 VPB.n105 13.276
R298 VPB.n271 VPB.n253 13.276
R299 VPB.n253 VPB.n251 13.276
R300 VPB.n201 VPB.n197 13.276
R301 VPB.n276 VPB.n272 13.276
R302 VPB.n130 VPB.n126 13.276
R303 VPB.n133 VPB.n130 13.276
R304 VPB.n141 VPB.n137 13.276
R305 VPB.n145 VPB.n141 13.276
R306 VPB.n154 VPB.n150 13.276
R307 VPB.n163 VPB.n159 13.276
R308 VPB.n166 VPB.n163 13.276
R309 VPB.n348 VPB.n170 13.276
R310 VPB.n349 VPB.n348 13.276
R311 VPB.n353 VPB.n349 13.276
R312 VPB.n436 VPB.n432 13.276
R313 VPB.n41 VPB.n37 13.276
R314 VPB.n44 VPB.n41 13.276
R315 VPB.n52 VPB.n48 13.276
R316 VPB.n56 VPB.n52 13.276
R317 VPB.n65 VPB.n61 13.276
R318 VPB.n74 VPB.n70 13.276
R319 VPB.n77 VPB.n74 13.276
R320 VPB.n506 VPB.n81 13.276
R321 VPB.n191 VPB.n173 13.276
R322 VPB.n173 VPB.n171 13.276
R323 VPB.n178 VPB.n176 12.796
R324 VPB.n178 VPB.n177 12.564
R325 VPB.n170 VPB.n167 12.558
R326 VPB.n81 VPB.n78 12.558
R327 VPB.n205 VPB.n202 12.2
R328 VPB.n134 VPB.n133 12.2
R329 VPB.n45 VPB.n44 12.2
R330 VPB.n186 VPB.n185 12.198
R331 VPB.n184 VPB.n183 12.198
R332 VPB.n181 VPB.n180 12.198
R333 VPB.n150 VPB.n146 9.329
R334 VPB.n61 VPB.n57 9.329
R335 VPB.n155 VPB.n154 8.97
R336 VPB.n66 VPB.n65 8.97
R337 VPB.n191 VPB.n190 7.5
R338 VPB.n176 VPB.n175 7.5
R339 VPB.n180 VPB.n179 7.5
R340 VPB.n183 VPB.n182 7.5
R341 VPB.n173 VPB.n172 7.5
R342 VPB.n188 VPB.n174 7.5
R343 VPB.n253 VPB.n252 7.5
R344 VPB.n266 VPB.n265 7.5
R345 VPB.n260 VPB.n259 7.5
R346 VPB.n262 VPB.n261 7.5
R347 VPB.n255 VPB.n254 7.5
R348 VPB.n271 VPB.n270 7.5
R349 VPB.n107 VPB.n106 7.5
R350 VPB.n120 VPB.n119 7.5
R351 VPB.n114 VPB.n113 7.5
R352 VPB.n116 VPB.n115 7.5
R353 VPB.n109 VPB.n108 7.5
R354 VPB.n125 VPB.n124 7.5
R355 VPB.n84 VPB.n83 7.5
R356 VPB.n97 VPB.n96 7.5
R357 VPB.n91 VPB.n90 7.5
R358 VPB.n93 VPB.n92 7.5
R359 VPB.n86 VPB.n85 7.5
R360 VPB.n102 VPB.n101 7.5
R361 VPB.n413 VPB.n412 7.5
R362 VPB.n426 VPB.n425 7.5
R363 VPB.n420 VPB.n419 7.5
R364 VPB.n422 VPB.n421 7.5
R365 VPB.n415 VPB.n414 7.5
R366 VPB.n431 VPB.n430 7.5
R367 VPB.n18 VPB.n17 7.5
R368 VPB.n31 VPB.n30 7.5
R369 VPB.n25 VPB.n24 7.5
R370 VPB.n27 VPB.n26 7.5
R371 VPB.n20 VPB.n19 7.5
R372 VPB.n36 VPB.n35 7.5
R373 VPB.n509 VPB.n508 7.5
R374 VPB.n12 VPB.n11 7.5
R375 VPB.n6 VPB.n5 7.5
R376 VPB.n8 VPB.n7 7.5
R377 VPB.n2 VPB.n1 7.5
R378 VPB.n511 VPB.n510 7.5
R379 VPB.n37 VPB.n36 7.176
R380 VPB.n432 VPB.n431 7.176
R381 VPB.n349 VPB.n102 7.176
R382 VPB.n126 VPB.n125 7.176
R383 VPB.n272 VPB.n271 7.176
R384 VPB.n267 VPB.n264 6.729
R385 VPB.n263 VPB.n260 6.729
R386 VPB.n258 VPB.n255 6.729
R387 VPB.n121 VPB.n118 6.729
R388 VPB.n117 VPB.n114 6.729
R389 VPB.n112 VPB.n109 6.729
R390 VPB.n98 VPB.n95 6.729
R391 VPB.n94 VPB.n91 6.729
R392 VPB.n89 VPB.n86 6.729
R393 VPB.n427 VPB.n424 6.729
R394 VPB.n423 VPB.n420 6.729
R395 VPB.n418 VPB.n415 6.729
R396 VPB.n32 VPB.n29 6.729
R397 VPB.n28 VPB.n25 6.729
R398 VPB.n23 VPB.n20 6.729
R399 VPB.n13 VPB.n10 6.729
R400 VPB.n9 VPB.n6 6.729
R401 VPB.n4 VPB.n2 6.729
R402 VPB.n258 VPB.n257 6.728
R403 VPB.n263 VPB.n262 6.728
R404 VPB.n267 VPB.n266 6.728
R405 VPB.n270 VPB.n269 6.728
R406 VPB.n112 VPB.n111 6.728
R407 VPB.n117 VPB.n116 6.728
R408 VPB.n121 VPB.n120 6.728
R409 VPB.n124 VPB.n123 6.728
R410 VPB.n89 VPB.n88 6.728
R411 VPB.n94 VPB.n93 6.728
R412 VPB.n98 VPB.n97 6.728
R413 VPB.n101 VPB.n100 6.728
R414 VPB.n418 VPB.n417 6.728
R415 VPB.n423 VPB.n422 6.728
R416 VPB.n427 VPB.n426 6.728
R417 VPB.n430 VPB.n429 6.728
R418 VPB.n23 VPB.n22 6.728
R419 VPB.n28 VPB.n27 6.728
R420 VPB.n32 VPB.n31 6.728
R421 VPB.n35 VPB.n34 6.728
R422 VPB.n4 VPB.n3 6.728
R423 VPB.n9 VPB.n8 6.728
R424 VPB.n13 VPB.n12 6.728
R425 VPB.n512 VPB.n511 6.728
R426 VPB.n190 VPB.n189 6.398
R427 VPB.n206 VPB.n194 6.112
R428 VPB.n206 VPB.n205 6.101
R429 VPB.n231 VPB.n227 4.305
R430 VPB.n314 VPB.n310 4.305
R431 VPB.n159 VPB.n155 4.305
R432 VPB.n391 VPB.n387 4.305
R433 VPB.n474 VPB.n470 4.305
R434 VPB.n70 VPB.n66 4.305
R435 VPB.n214 VPB.n210 3.947
R436 VPB.n297 VPB.n293 3.947
R437 VPB.n146 VPB.n145 3.947
R438 VPB.n374 VPB.n370 3.947
R439 VPB.n457 VPB.n453 3.947
R440 VPB.n57 VPB.n56 3.947
R441 VPB.n188 VPB.n181 1.402
R442 VPB.n188 VPB.n184 1.402
R443 VPB.n188 VPB.n186 1.402
R444 VPB.n188 VPB.n187 1.402
R445 VPB.n202 VPB.n201 1.076
R446 VPB.n285 VPB.n282 1.076
R447 VPB.n137 VPB.n134 1.076
R448 VPB.n362 VPB.n359 1.076
R449 VPB.n445 VPB.n442 1.076
R450 VPB.n48 VPB.n45 1.076
R451 VPB.n189 VPB.n188 0.735
R452 VPB.n188 VPB.n178 0.735
R453 VPB.n241 VPB.n238 0.717
R454 VPB.n324 VPB.n321 0.717
R455 VPB.n167 VPB.n166 0.717
R456 VPB.n401 VPB.n398 0.717
R457 VPB.n484 VPB.n481 0.717
R458 VPB.n78 VPB.n77 0.717
R459 VPB.n268 VPB.n267 0.387
R460 VPB.n268 VPB.n263 0.387
R461 VPB.n268 VPB.n258 0.387
R462 VPB.n269 VPB.n268 0.387
R463 VPB.n122 VPB.n121 0.387
R464 VPB.n122 VPB.n117 0.387
R465 VPB.n122 VPB.n112 0.387
R466 VPB.n123 VPB.n122 0.387
R467 VPB.n99 VPB.n98 0.387
R468 VPB.n99 VPB.n94 0.387
R469 VPB.n99 VPB.n89 0.387
R470 VPB.n100 VPB.n99 0.387
R471 VPB.n428 VPB.n427 0.387
R472 VPB.n428 VPB.n423 0.387
R473 VPB.n428 VPB.n418 0.387
R474 VPB.n429 VPB.n428 0.387
R475 VPB.n33 VPB.n32 0.387
R476 VPB.n33 VPB.n28 0.387
R477 VPB.n33 VPB.n23 0.387
R478 VPB.n34 VPB.n33 0.387
R479 VPB.n513 VPB.n13 0.387
R480 VPB.n513 VPB.n9 0.387
R481 VPB.n513 VPB.n4 0.387
R482 VPB.n513 VPB.n512 0.387
R483 VPB.n277 VPB.n250 0.272
R484 VPB.n334 VPB.n333 0.272
R485 VPB.n437 VPB.n410 0.272
R486 VPB.n494 VPB.n493 0.272
R487 VPB.n505 VPB 0.198
R488 VPB.n208 VPB.n207 0.136
R489 VPB.n215 VPB.n208 0.136
R490 VPB.n220 VPB.n215 0.136
R491 VPB.n225 VPB.n220 0.136
R492 VPB.n232 VPB.n225 0.136
R493 VPB.n237 VPB.n232 0.136
R494 VPB.n242 VPB.n237 0.136
R495 VPB.n246 VPB.n242 0.136
R496 VPB.n250 VPB.n246 0.136
R497 VPB.n281 VPB.n277 0.136
R498 VPB.n286 VPB.n281 0.136
R499 VPB.n291 VPB.n286 0.136
R500 VPB.n298 VPB.n291 0.136
R501 VPB.n303 VPB.n298 0.136
R502 VPB.n308 VPB.n303 0.136
R503 VPB.n315 VPB.n308 0.136
R504 VPB.n320 VPB.n315 0.136
R505 VPB.n325 VPB.n320 0.136
R506 VPB.n329 VPB.n325 0.136
R507 VPB.n333 VPB.n329 0.136
R508 VPB.n335 VPB.n334 0.136
R509 VPB.n336 VPB.n335 0.136
R510 VPB.n337 VPB.n336 0.136
R511 VPB.n338 VPB.n337 0.136
R512 VPB.n339 VPB.n338 0.136
R513 VPB.n340 VPB.n339 0.136
R514 VPB.n341 VPB.n340 0.136
R515 VPB.n342 VPB.n341 0.136
R516 VPB.n343 VPB.n342 0.136
R517 VPB.n344 VPB.n343 0.136
R518 VPB.n345 VPB.n344 0.136
R519 VPB.n345 VPB 0.136
R520 VPB.n354 VPB 0.136
R521 VPB.n358 VPB.n354 0.136
R522 VPB.n363 VPB.n358 0.136
R523 VPB.n368 VPB.n363 0.136
R524 VPB.n375 VPB.n368 0.136
R525 VPB.n380 VPB.n375 0.136
R526 VPB.n385 VPB.n380 0.136
R527 VPB.n392 VPB.n385 0.136
R528 VPB.n397 VPB.n392 0.136
R529 VPB.n402 VPB.n397 0.136
R530 VPB.n406 VPB.n402 0.136
R531 VPB.n410 VPB.n406 0.136
R532 VPB.n441 VPB.n437 0.136
R533 VPB.n446 VPB.n441 0.136
R534 VPB.n451 VPB.n446 0.136
R535 VPB.n458 VPB.n451 0.136
R536 VPB.n463 VPB.n458 0.136
R537 VPB.n468 VPB.n463 0.136
R538 VPB.n475 VPB.n468 0.136
R539 VPB.n480 VPB.n475 0.136
R540 VPB.n485 VPB.n480 0.136
R541 VPB.n489 VPB.n485 0.136
R542 VPB.n493 VPB.n489 0.136
R543 VPB.n495 VPB.n494 0.136
R544 VPB.n496 VPB.n495 0.136
R545 VPB.n497 VPB.n496 0.136
R546 VPB.n498 VPB.n497 0.136
R547 VPB.n499 VPB.n498 0.136
R548 VPB.n500 VPB.n499 0.136
R549 VPB.n501 VPB.n500 0.136
R550 VPB.n502 VPB.n501 0.136
R551 VPB.n503 VPB.n502 0.136
R552 VPB.n504 VPB.n503 0.136
R553 VPB.n505 VPB.n504 0.136
R554 a_277_1004.n7 a_277_1004.t10 512.525
R555 a_277_1004.n5 a_277_1004.t7 512.525
R556 a_277_1004.n7 a_277_1004.t11 371.139
R557 a_277_1004.n5 a_277_1004.t12 371.139
R558 a_277_1004.n8 a_277_1004.t9 244.968
R559 a_277_1004.n6 a_277_1004.t8 244.968
R560 a_277_1004.n10 a_277_1004.n4 207.04
R561 a_277_1004.n8 a_277_1004.n7 198.954
R562 a_277_1004.n6 a_277_1004.n5 198.954
R563 a_277_1004.n12 a_277_1004.n10 176.926
R564 a_277_1004.n9 a_277_1004.n6 79.491
R565 a_277_1004.n3 a_277_1004.n2 79.232
R566 a_277_1004.n10 a_277_1004.n9 77.315
R567 a_277_1004.n9 a_277_1004.n8 76
R568 a_277_1004.n4 a_277_1004.n3 63.152
R569 a_277_1004.n4 a_277_1004.n0 16.08
R570 a_277_1004.n3 a_277_1004.n1 16.08
R571 a_277_1004.n12 a_277_1004.n11 15.218
R572 a_277_1004.n0 a_277_1004.t3 14.282
R573 a_277_1004.n0 a_277_1004.t2 14.282
R574 a_277_1004.n1 a_277_1004.t1 14.282
R575 a_277_1004.n1 a_277_1004.t0 14.282
R576 a_277_1004.n2 a_277_1004.t6 14.282
R577 a_277_1004.n2 a_277_1004.t5 14.282
R578 a_277_1004.n13 a_277_1004.n12 12.014
R579 a_599_943.n5 a_599_943.t12 512.525
R580 a_599_943.n7 a_599_943.t10 454.685
R581 a_599_943.n7 a_599_943.t8 428.979
R582 a_599_943.n5 a_599_943.t7 371.139
R583 a_599_943.n6 a_599_943.t9 297.715
R584 a_599_943.n8 a_599_943.t11 248.006
R585 a_599_943.n12 a_599_943.n10 229.673
R586 a_599_943.n10 a_599_943.n4 154.293
R587 a_599_943.n6 a_599_943.n5 146.207
R588 a_599_943.n9 a_599_943.n6 84.388
R589 a_599_943.n8 a_599_943.n7 81.941
R590 a_599_943.n9 a_599_943.n8 80.035
R591 a_599_943.n3 a_599_943.n2 79.232
R592 a_599_943.n10 a_599_943.n9 76
R593 a_599_943.n4 a_599_943.n3 63.152
R594 a_599_943.n4 a_599_943.n0 16.08
R595 a_599_943.n3 a_599_943.n1 16.08
R596 a_599_943.n12 a_599_943.n11 15.218
R597 a_599_943.n0 a_599_943.t2 14.282
R598 a_599_943.n0 a_599_943.t0 14.282
R599 a_599_943.n1 a_599_943.t3 14.282
R600 a_599_943.n1 a_599_943.t4 14.282
R601 a_599_943.n2 a_599_943.t6 14.282
R602 a_599_943.n2 a_599_943.t5 14.282
R603 a_599_943.n13 a_599_943.n12 12.014
R604 a_1561_943.n8 a_1561_943.t14 454.685
R605 a_1561_943.n10 a_1561_943.t8 454.685
R606 a_1561_943.n6 a_1561_943.t15 454.685
R607 a_1561_943.n8 a_1561_943.t11 428.979
R608 a_1561_943.n10 a_1561_943.t12 428.979
R609 a_1561_943.n6 a_1561_943.t13 428.979
R610 a_1561_943.n9 a_1561_943.t7 274.559
R611 a_1561_943.n7 a_1561_943.t10 274.559
R612 a_1561_943.n11 a_1561_943.t9 274.22
R613 a_1561_943.n16 a_1561_943.n14 249.704
R614 a_1561_943.n14 a_1561_943.n5 127.74
R615 a_1561_943.n13 a_1561_943.n7 82.484
R616 a_1561_943.n12 a_1561_943.n11 79.495
R617 a_1561_943.n4 a_1561_943.n3 79.232
R618 a_1561_943.n12 a_1561_943.n9 76
R619 a_1561_943.n14 a_1561_943.n13 76
R620 a_1561_943.n5 a_1561_943.n4 63.152
R621 a_1561_943.n9 a_1561_943.n8 55.388
R622 a_1561_943.n7 a_1561_943.n6 55.388
R623 a_1561_943.n11 a_1561_943.n10 55.049
R624 a_1561_943.n16 a_1561_943.n15 30
R625 a_1561_943.n17 a_1561_943.n0 24.383
R626 a_1561_943.n17 a_1561_943.n16 23.684
R627 a_1561_943.n5 a_1561_943.n1 16.08
R628 a_1561_943.n4 a_1561_943.n2 16.08
R629 a_1561_943.n1 a_1561_943.t1 14.282
R630 a_1561_943.n1 a_1561_943.t0 14.282
R631 a_1561_943.n2 a_1561_943.t4 14.282
R632 a_1561_943.n2 a_1561_943.t3 14.282
R633 a_1561_943.n3 a_1561_943.t5 14.282
R634 a_1561_943.n3 a_1561_943.t6 14.282
R635 a_1561_943.n13 a_1561_943.n12 4.035
R636 a_91_75.t0 a_91_75.n0 117.777
R637 a_91_75.n2 a_91_75.n1 55.228
R638 a_91_75.n4 a_91_75.n3 9.111
R639 a_91_75.n8 a_91_75.n6 7.859
R640 a_91_75.t0 a_91_75.n2 4.04
R641 a_91_75.t0 a_91_75.n8 3.034
R642 a_91_75.n6 a_91_75.n4 1.964
R643 a_91_75.n6 a_91_75.n5 1.964
R644 a_91_75.n8 a_91_75.n7 0.443
R645 a_372_182.n10 a_372_182.n8 82.852
R646 a_372_182.n11 a_372_182.n0 49.6
R647 a_372_182.n7 a_372_182.n6 32.833
R648 a_372_182.n8 a_372_182.t1 32.416
R649 a_372_182.n10 a_372_182.n9 27.2
R650 a_372_182.n3 a_372_182.n2 23.284
R651 a_372_182.n11 a_372_182.n10 22.4
R652 a_372_182.n7 a_372_182.n4 19.017
R653 a_372_182.n6 a_372_182.n5 13.494
R654 a_372_182.t1 a_372_182.n1 7.04
R655 a_372_182.t1 a_372_182.n3 5.727
R656 a_372_182.n8 a_372_182.n7 1.435
R657 a_2296_182.n12 a_2296_182.n10 82.852
R658 a_2296_182.t1 a_2296_182.n2 46.91
R659 a_2296_182.n7 a_2296_182.n5 34.805
R660 a_2296_182.n7 a_2296_182.n6 32.622
R661 a_2296_182.n10 a_2296_182.t1 32.416
R662 a_2296_182.n12 a_2296_182.n11 27.2
R663 a_2296_182.n13 a_2296_182.n0 23.498
R664 a_2296_182.n13 a_2296_182.n12 22.4
R665 a_2296_182.n9 a_2296_182.n7 19.017
R666 a_2296_182.n2 a_2296_182.n1 17.006
R667 a_2296_182.n5 a_2296_182.n4 7.5
R668 a_2296_182.n9 a_2296_182.n8 7.5
R669 a_2296_182.t1 a_2296_182.n3 7.04
R670 a_2296_182.n10 a_2296_182.n9 1.435
R671 a_2201_1004.n5 a_2201_1004.t9 512.525
R672 a_2201_1004.n5 a_2201_1004.t8 371.139
R673 a_2201_1004.n6 a_2201_1004.t7 244.609
R674 a_2201_1004.n7 a_2201_1004.n4 207.399
R675 a_2201_1004.n6 a_2201_1004.n5 199.313
R676 a_2201_1004.n9 a_2201_1004.n7 176.567
R677 a_2201_1004.n7 a_2201_1004.n6 153.315
R678 a_2201_1004.n3 a_2201_1004.n2 79.232
R679 a_2201_1004.n4 a_2201_1004.n3 63.152
R680 a_2201_1004.n4 a_2201_1004.n0 16.08
R681 a_2201_1004.n3 a_2201_1004.n1 16.08
R682 a_2201_1004.n9 a_2201_1004.n8 15.218
R683 a_2201_1004.n0 a_2201_1004.t4 14.282
R684 a_2201_1004.n0 a_2201_1004.t3 14.282
R685 a_2201_1004.n1 a_2201_1004.t1 14.282
R686 a_2201_1004.n1 a_2201_1004.t0 14.282
R687 a_2201_1004.n2 a_2201_1004.t6 14.282
R688 a_2201_1004.n2 a_2201_1004.t5 14.282
R689 a_2201_1004.n10 a_2201_1004.n9 12.014
R690 a_4220_182.n12 a_4220_182.n10 82.852
R691 a_4220_182.t1 a_4220_182.n2 46.91
R692 a_4220_182.n7 a_4220_182.n5 34.805
R693 a_4220_182.n7 a_4220_182.n6 32.622
R694 a_4220_182.n10 a_4220_182.t1 32.416
R695 a_4220_182.n12 a_4220_182.n11 27.2
R696 a_4220_182.n13 a_4220_182.n0 23.498
R697 a_4220_182.n13 a_4220_182.n12 22.4
R698 a_4220_182.n9 a_4220_182.n7 19.017
R699 a_4220_182.n2 a_4220_182.n1 17.006
R700 a_4220_182.n5 a_4220_182.n4 7.5
R701 a_4220_182.n9 a_4220_182.n8 7.5
R702 a_4220_182.t1 a_4220_182.n3 7.04
R703 a_4220_182.n10 a_4220_182.n9 1.435
R704 a_4125_1004.n5 a_4125_1004.t7 512.525
R705 a_4125_1004.n5 a_4125_1004.t9 371.139
R706 a_4125_1004.n6 a_4125_1004.t8 271.162
R707 a_4125_1004.n9 a_4125_1004.n7 203.12
R708 a_4125_1004.n7 a_4125_1004.n4 180.846
R709 a_4125_1004.n6 a_4125_1004.n5 172.76
R710 a_4125_1004.n7 a_4125_1004.n6 153.315
R711 a_4125_1004.n3 a_4125_1004.n2 79.232
R712 a_4125_1004.n4 a_4125_1004.n3 63.152
R713 a_4125_1004.n4 a_4125_1004.n0 16.08
R714 a_4125_1004.n3 a_4125_1004.n1 16.08
R715 a_4125_1004.n9 a_4125_1004.n8 15.218
R716 a_4125_1004.n0 a_4125_1004.t2 14.282
R717 a_4125_1004.n0 a_4125_1004.t3 14.282
R718 a_4125_1004.n1 a_4125_1004.t0 14.282
R719 a_4125_1004.n1 a_4125_1004.t1 14.282
R720 a_4125_1004.n2 a_4125_1004.t5 14.282
R721 a_4125_1004.n2 a_4125_1004.t6 14.282
R722 a_4125_1004.n10 a_4125_1004.n9 12.014
R723 a_1334_182.n9 a_1334_182.n7 82.852
R724 a_1334_182.n3 a_1334_182.n1 44.628
R725 a_1334_182.t0 a_1334_182.n9 32.417
R726 a_1334_182.n7 a_1334_182.n6 27.2
R727 a_1334_182.n5 a_1334_182.n4 23.498
R728 a_1334_182.n3 a_1334_182.n2 23.284
R729 a_1334_182.n7 a_1334_182.n5 22.4
R730 a_1334_182.t0 a_1334_182.n11 20.241
R731 a_1334_182.n11 a_1334_182.n10 13.494
R732 a_1334_182.t0 a_1334_182.n0 8.137
R733 a_1334_182.t0 a_1334_182.n3 5.727
R734 a_1334_182.n9 a_1334_182.n8 1.435
R735 a_2015_75.t0 a_2015_75.n0 117.777
R736 a_2015_75.n2 a_2015_75.n1 55.228
R737 a_2015_75.n4 a_2015_75.n3 9.111
R738 a_2015_75.t0 a_2015_75.n2 4.04
R739 a_2015_75.n8 a_2015_75.n7 2.455
R740 a_2015_75.n6 a_2015_75.n4 1.964
R741 a_2015_75.n6 a_2015_75.n5 1.964
R742 a_2015_75.n8 a_2015_75.n6 0.636
R743 a_2015_75.t0 a_2015_75.n8 0.246
R744 VNB VNB.n446 300.778
R745 VNB.n214 VNB.n213 199.897
R746 VNB.n87 VNB.n86 199.897
R747 VNB.n67 VNB.n66 199.897
R748 VNB.n356 VNB.n355 199.897
R749 VNB.n15 VNB.n14 199.897
R750 VNB.n96 VNB.n94 154.509
R751 VNB.n223 VNB.n221 154.509
R752 VNB.n365 VNB.n363 154.509
R753 VNB.n297 VNB.n295 154.509
R754 VNB.n24 VNB.n22 154.509
R755 VNB.n180 VNB.n179 147.75
R756 VNB.n255 VNB.n254 147.75
R757 VNB.n120 VNB.n119 147.75
R758 VNB.n397 VNB.n396 147.75
R759 VNB.n192 VNB.n189 121.366
R760 VNB.n267 VNB.n264 121.366
R761 VNB.n125 VNB.n123 121.366
R762 VNB.n409 VNB.n406 121.366
R763 VNB.n333 VNB.n332 85.559
R764 VNB.n53 VNB.n4 85.559
R765 VNB.n433 VNB.n432 76
R766 VNB.n420 VNB.n419 76
R767 VNB.n416 VNB.n415 76
R768 VNB.n412 VNB.n411 76
R769 VNB.n400 VNB.n399 76
R770 VNB.n395 VNB.n394 76
R771 VNB.n391 VNB.n390 76
R772 VNB.n387 VNB.n386 76
R773 VNB.n383 VNB.n382 76
R774 VNB.n379 VNB.n378 76
R775 VNB.n375 VNB.n374 76
R776 VNB.n371 VNB.n370 76
R777 VNB.n367 VNB.n366 76
R778 VNB.n345 VNB.n344 76
R779 VNB.n341 VNB.n340 76
R780 VNB.n337 VNB.n336 76
R781 VNB.n331 VNB.n330 76
R782 VNB.n327 VNB.n326 76
R783 VNB.n323 VNB.n322 76
R784 VNB.n319 VNB.n318 76
R785 VNB.n315 VNB.n314 76
R786 VNB.n311 VNB.n310 76
R787 VNB.n307 VNB.n306 76
R788 VNB.n303 VNB.n302 76
R789 VNB.n299 VNB.n298 76
R790 VNB.n293 VNB.n290 76
R791 VNB.n278 VNB.n277 76
R792 VNB.n274 VNB.n273 76
R793 VNB.n270 VNB.n269 76
R794 VNB.n258 VNB.n257 76
R795 VNB.n253 VNB.n252 76
R796 VNB.n249 VNB.n248 76
R797 VNB.n245 VNB.n244 76
R798 VNB.n241 VNB.n240 76
R799 VNB.n237 VNB.n236 76
R800 VNB.n233 VNB.n232 76
R801 VNB.n229 VNB.n228 76
R802 VNB.n225 VNB.n224 76
R803 VNB.n203 VNB.n202 76
R804 VNB.n199 VNB.n198 76
R805 VNB.n195 VNB.n194 76
R806 VNB.n183 VNB.n182 76
R807 VNB.n178 VNB.n177 76
R808 VNB.n174 VNB.n173 76
R809 VNB.n170 VNB.n169 76
R810 VNB.n166 VNB.n165 76
R811 VNB.n130 VNB.n129 73.875
R812 VNB.n188 VNB.n187 64.552
R813 VNB.n263 VNB.n262 64.552
R814 VNB.n128 VNB.n76 64.552
R815 VNB.n405 VNB.n404 64.552
R816 VNB.n335 VNB.n334 41.971
R817 VNB.n51 VNB.n50 41.971
R818 VNB.n192 VNB.n191 36.937
R819 VNB.n267 VNB.n266 36.937
R820 VNB.n125 VNB.n124 36.937
R821 VNB.n409 VNB.n408 36.937
R822 VNB.n161 VNB.n160 35.118
R823 VNB.n191 VNB.n190 29.844
R824 VNB.n266 VNB.n265 29.844
R825 VNB.n408 VNB.n407 29.844
R826 VNB.n187 VNB.n186 28.421
R827 VNB.n262 VNB.n261 28.421
R828 VNB.n76 VNB.n75 28.421
R829 VNB.n404 VNB.n403 28.421
R830 VNB.n187 VNB.n185 25.263
R831 VNB.n262 VNB.n260 25.263
R832 VNB.n76 VNB.n74 25.263
R833 VNB.n404 VNB.n402 25.263
R834 VNB.n185 VNB.n184 24.383
R835 VNB.n260 VNB.n259 24.383
R836 VNB.n74 VNB.n73 24.383
R837 VNB.n402 VNB.n401 24.383
R838 VNB.n150 VNB.n147 20.452
R839 VNB.n434 VNB.n433 20.452
R840 VNB.n159 VNB.n158 13.653
R841 VNB.n158 VNB.n157 13.653
R842 VNB.n156 VNB.n155 13.653
R843 VNB.n155 VNB.n154 13.653