* SPICE3 file created from DFFSNRNQX1.ext - technology: sky130A

.subckt DFFSNRNQX1 Q D CLK SN RN VDD GND
M1000 VDD.t32 a_2201_1050.t7 a_1561_989.t6 pshort w=2u l=0.15u
+  ad=0p pd=0u as=0p ps=0u
M1001 Q.t1 SN.t0 VDD.t8 pshort w=2u l=0.15u
+  ad=0p pd=0u as=0p ps=0u
M1002 VDD.t6 D.t0 a_277_1050.t6 pshort w=2u l=0.15u
+  ad=0p pd=0u as=0p ps=0u
M1003 GND D.t1 a_91_103.t0 nshort w=-1.605u l=1.765u
+  ad=1.0746p pd=9.42u as=0p ps=0u
M1004 a_599_989.t1 CLK.t1 VDD.t11 pshort w=2u l=0.15u
+  ad=0p pd=0u as=0p ps=0u
M1005 VDD.t5 a_277_1050.t7 a_2201_1050.t1 pshort w=2u l=0.15u
+  ad=0p pd=0u as=0p ps=0u
M1006 VDD.t13 CLK.t2 a_1561_989.t3 pshort w=2u l=0.15u
+  ad=0p pd=0u as=0p ps=0u
M1007 VDD.t9 RN.t0 a_277_1050.t3 pshort w=2u l=0.15u
+  ad=0p pd=0u as=0p ps=0u
M1008 a_599_989.t6 a_1561_989.t7 VDD.t25 pshort w=2u l=0.15u
+  ad=0p pd=0u as=0p ps=0u
M1009 VDD.t2 RN.t1 a_1561_989.t0 pshort w=2u l=0.15u
+  ad=0p pd=0u as=0p ps=0u
M1010 VDD.t17 SN.t1 a_2201_1050.t3 pshort w=2u l=0.15u
+  ad=0p pd=0u as=0p ps=0u
M1011 a_4125_1050.t1 a_599_989.t8 VDD.t7 pshort w=2u l=0.15u
+  ad=0p pd=0u as=0p ps=0u
M1012 a_4125_1050.t6 Q.t7 VDD.t33 pshort w=2u l=0.15u
+  ad=0p pd=0u as=0p ps=0u
M1013 a_1561_989.t2 CLK.t3 VDD.t12 pshort w=2u l=0.15u
+  ad=0p pd=0u as=0p ps=0u
M1014 VDD.t0 a_599_989.t9 a_277_1050.t0 pshort w=2u l=0.15u
+  ad=0p pd=0u as=0p ps=0u
M1015 GND a_277_1050.t9 a_2015_103.t0 nshort w=-1.605u l=1.765u
+  ad=0p pd=0u as=0p ps=0u
M1016 VDD.t29 a_1561_989.t8 a_2201_1050.t5 pshort w=2u l=0.15u
+  ad=0p pd=0u as=0p ps=0u
M1017 a_4125_1050.t3 RN.t2 VDD.t16 pshort w=2u l=0.15u
+  ad=0p pd=0u as=0p ps=0u
M1018 Q a_1561_989.t12 a_5182_210.t1 nshort w=-1.605u l=1.765u
+  ad=0.1791p pd=1.57u as=0p ps=0u
M1019 a_1561_989.t5 a_2201_1050.t8 VDD.t31 pshort w=2u l=0.15u
+  ad=0p pd=0u as=0p ps=0u
M1020 VDD.t21 a_4125_1050.t8 Q.t3 pshort w=2u l=0.15u
+  ad=0p pd=0u as=0p ps=0u
M1021 a_277_1050.t5 D.t2 VDD.t20 pshort w=2u l=0.15u
+  ad=0p pd=0u as=0p ps=0u
M1022 GND a_2201_1050.t9 a_2977_103.t0 nshort w=-1.605u l=1.765u
+  ad=0p pd=0u as=0p ps=0u
M1023 VDD.t35 a_277_1050.t8 a_599_989.t3 pshort w=2u l=0.15u
+  ad=0p pd=0u as=0p ps=0u
M1024 GND a_277_1050.t10 a_1053_103.t0 nshort w=-1.605u l=1.765u
+  ad=0p pd=0u as=0p ps=0u
M1025 VDD.t26 a_1561_989.t11 a_599_989.t5 pshort w=2u l=0.15u
+  ad=0p pd=0u as=0p ps=0u
M1026 VDD.t23 SN.t2 Q.t0 pshort w=2u l=0.15u
+  ad=0p pd=0u as=0p ps=0u
M1027 a_277_1050.t4 RN.t5 VDD.t18 pshort w=2u l=0.15u
+  ad=0p pd=0u as=0p ps=0u
M1028 GND a_599_989.t11 a_3939_103.t0 nshort w=-1.605u l=1.765u
+  ad=0p pd=0u as=0p ps=0u
M1029 VDD.t10 CLK.t4 a_599_989.t0 pshort w=2u l=0.15u
+  ad=0p pd=0u as=0p ps=0u
M1030 a_1561_989.t4 RN.t6 VDD.t15 pshort w=2u l=0.15u
+  ad=0p pd=0u as=0p ps=0u
M1031 VDD.t30 a_1561_989.t13 Q.t6 pshort w=2u l=0.15u
+  ad=0p pd=0u as=0p ps=0u
M1032 a_599_989.t2 a_277_1050.t11 VDD.t34 pshort w=2u l=0.15u
+  ad=0p pd=0u as=0p ps=0u
M1033 a_2201_1050.t0 SN.t3 VDD.t1 pshort w=2u l=0.15u
+  ad=0p pd=0u as=0p ps=0u
M1034 VDD.t14 RN.t7 a_4125_1050.t2 pshort w=2u l=0.15u
+  ad=0p pd=0u as=0p ps=0u
M1035 a_277_1050.t2 a_599_989.t10 VDD.t3 pshort w=2u l=0.15u
+  ad=0p pd=0u as=0p ps=0u
M1036 GND a_4125_1050.t7 a_4901_103.t0 nshort w=-1.605u l=1.765u
+  ad=0p pd=0u as=0p ps=0u
M1037 a_2201_1050.t4 a_277_1050.t12 VDD.t19 pshort w=2u l=0.15u
+  ad=0p pd=0u as=0p ps=0u
M1038 a_2201_1050.t6 a_1561_989.t14 VDD.t28 pshort w=2u l=0.15u
+  ad=0p pd=0u as=0p ps=0u
M1039 VDD.t24 a_599_989.t12 a_4125_1050.t4 pshort w=2u l=0.15u
+  ad=0p pd=0u as=0p ps=0u
M1040 VDD.t4 Q.t9 a_4125_1050.t0 pshort w=2u l=0.15u
+  ad=0p pd=0u as=0p ps=0u
M1041 Q.t2 a_4125_1050.t9 VDD.t22 pshort w=2u l=0.15u
+  ad=0p pd=0u as=0p ps=0u
M1042 Q.t5 a_1561_989.t15 VDD.t27 pshort w=2u l=0.15u
+  ad=0p pd=0u as=0p ps=0u
C0 D RN 0.18fF
C1 CLK SN 0.48fF
C2 VDD CLK 0.10fF
C3 SN Q 0.39fF
C4 VDD SN 0.10fF
C5 RN CLK 0.73fF
C6 VDD Q 1.83fF
C7 RN SN 0.37fF
C8 VDD D 0.08fF
C9 RN Q 0.18fF
C10 VDD RN 2.04fF
R0 CLK.n2 CLK.t4 479.223
R1 CLK.n0 CLK.t2 479.223
R2 CLK.n2 CLK.t1 375.52
R3 CLK.n0 CLK.t3 375.52
R4 CLK.n3 CLK.t5 215.154
R5 CLK.n1 CLK.t0 215.154
R6 CLK.n3 CLK.n2 122.323
R7 CLK.n1 CLK.n0 122.323
R8 CLK.n4 CLK.n1 83.028
R9 CLK.n4 CLK.n3 76
R10 CLK.n4 CLK 0.046
R11 a_2977_103.t0 a_2977_103.n0 117.777
R12 a_2977_103.n2 a_2977_103.n1 55.228
R13 a_2977_103.n4 a_2977_103.n3 9.111
R14 a_2977_103.n8 a_2977_103.n6 7.859
R15 a_2977_103.t0 a_2977_103.n2 4.04
R16 a_2977_103.t0 a_2977_103.n8 3.034
R17 a_2977_103.n6 a_2977_103.n4 1.964
R18 a_2977_103.n6 a_2977_103.n5 1.964
R19 a_2977_103.n8 a_2977_103.n7 0.443
R20 a_3258_210.n12 a_3258_210.n5 96.467
R21 a_3258_210.t0 a_3258_210.n1 46.91
R22 a_3258_210.n9 a_3258_210.n7 34.805
R23 a_3258_210.n9 a_3258_210.n8 32.622
R24 a_3258_210.t0 a_3258_210.n12 32.417
R25 a_3258_210.n5 a_3258_210.n4 22.349
R26 a_3258_210.n11 a_3258_210.n9 19.017
R27 a_3258_210.n1 a_3258_210.n0 17.006
R28 a_3258_210.n5 a_3258_210.n3 8.443
R29 a_3258_210.t0 a_3258_210.n2 8.137
R30 a_3258_210.n7 a_3258_210.n6 7.5
R31 a_3258_210.n11 a_3258_210.n10 7.5
R32 a_3258_210.n12 a_3258_210.n11 1.435
R33 a_4125_1050.n5 a_4125_1050.t8 512.525
R34 a_4125_1050.n5 a_4125_1050.t9 371.139
R35 a_4125_1050.n6 a_4125_1050.t7 261.115
R36 a_4125_1050.n7 a_4125_1050.n4 197.352
R37 a_4125_1050.n9 a_4125_1050.n7 193.073
R38 a_4125_1050.n6 a_4125_1050.n5 189.266
R39 a_4125_1050.n7 a_4125_1050.n6 153.315
R40 a_4125_1050.n3 a_4125_1050.n2 79.232
R41 a_4125_1050.n4 a_4125_1050.n3 63.152
R42 a_4125_1050.n4 a_4125_1050.n0 16.08
R43 a_4125_1050.n3 a_4125_1050.n1 16.08
R44 a_4125_1050.n9 a_4125_1050.n8 15.218
R45 a_4125_1050.n0 a_4125_1050.t0 14.282
R46 a_4125_1050.n0 a_4125_1050.t6 14.282
R47 a_4125_1050.n1 a_4125_1050.t2 14.282
R48 a_4125_1050.n1 a_4125_1050.t3 14.282
R49 a_4125_1050.n2 a_4125_1050.t4 14.282
R50 a_4125_1050.n2 a_4125_1050.t1 14.282
R51 a_4125_1050.n10 a_4125_1050.n9 12.014
R52 a_4901_103.t0 a_4901_103.n0 117.777
R53 a_4901_103.n2 a_4901_103.n1 55.228
R54 a_4901_103.n4 a_4901_103.n3 9.111
R55 a_4901_103.t0 a_4901_103.n2 4.04
R56 a_4901_103.n8 a_4901_103.n7 2.455
R57 a_4901_103.n6 a_4901_103.n4 1.964
R58 a_4901_103.n6 a_4901_103.n5 1.964
R59 a_4901_103.n8 a_4901_103.n6 0.636
R60 a_4901_103.t0 a_4901_103.n8 0.246
R61 GND.n38 GND.n36 219.745
R62 GND.n161 GND.n160 219.745
R63 GND.n203 GND.n201 219.745
R64 GND.n241 GND.n239 219.745
R65 GND.n80 GND.n79 219.745
R66 GND.n27 GND.n26 85.559
R67 GND.n69 GND.n68 85.559
R68 GND.n111 GND.n110 85.559
R69 GND.n212 GND.n211 85.559
R70 GND.n170 GND.n169 85.559
R71 GND.n128 GND.n127 85.559
R72 GND.n38 GND.n37 85.529
R73 GND.n161 GND.n159 85.529
R74 GND.n203 GND.n202 85.529
R75 GND.n241 GND.n240 85.529
R76 GND.n80 GND.n78 85.529
R77 GND.n122 GND.n121 76
R78 GND.n12 GND.n11 76
R79 GND.n15 GND.n14 76
R80 GND.n18 GND.n17 76
R81 GND.n21 GND.n20 76
R82 GND.n24 GND.n23 76
R83 GND.n29 GND.n28 76
R84 GND.n32 GND.n31 76
R85 GND.n35 GND.n34 76
R86 GND.n42 GND.n41 76
R87 GND.n45 GND.n44 76
R88 GND.n48 GND.n47 76
R89 GND.n51 GND.n50 76
R90 GND.n54 GND.n53 76
R91 GND.n57 GND.n56 76
R92 GND.n60 GND.n59 76
R93 GND.n63 GND.n62 76
R94 GND.n66 GND.n65 76
R95 GND.n71 GND.n70 76
R96 GND.n74 GND.n73 76
R97 GND.n77 GND.n76 76
R98 GND.n84 GND.n83 76
R99 GND.n87 GND.n86 76
R100 GND.n90 GND.n89 76
R101 GND.n93 GND.n92 76
R102 GND.n96 GND.n95 76
R103 GND.n99 GND.n98 76
R104 GND.n102 GND.n101 76
R105 GND.n105 GND.n104 76
R106 GND.n108 GND.n107 76
R107 GND.n113 GND.n112 76
R108 GND.n116 GND.n115 76
R109 GND.n119 GND.n118 76
R110 GND.n245 GND.n244 76
R111 GND.n238 GND.n237 76
R112 GND.n235 GND.n234 76
R113 GND.n232 GND.n231 76
R114 GND.n229 GND.n228 76
R115 GND.n226 GND.n225 76
R116 GND.n223 GND.n222 76
R117 GND.n220 GND.n219 76
R118 GND.n217 GND.n216 76
R119 GND.n214 GND.n213 76
R120 GND.n209 GND.n208 76
R121 GND.n206 GND.n205 76
R122 GND.n199 GND.n198 76
R123 GND.n196 GND.n195 76
R124 GND.n193 GND.n192 76
R125 GND.n190 GND.n189 76
R126 GND.n187 GND.n186 76
R127 GND.n184 GND.n183 76
R128 GND.n181 GND.n180 76
R129 GND.n178 GND.n177 76
R130 GND.n175 GND.n174 76
R131 GND.n172 GND.n171 76
R132 GND.n167 GND.n166 76
R133 GND.n164 GND.n163 76
R134 GND.n157 GND.n156 76
R135 GND.n154 GND.n153 76
R136 GND.n151 GND.n150 76
R137 GND.n148 GND.n147 76
R138 GND.n145 GND.n144 76
R139 GND.n142 GND.n141 76
R140 GND.n139 GND.n138 76
R141 GND.n136 GND.n135 76
R142 GND.n133 GND.n132 76
R143 GND.n130 GND.n129 76
R144 GND.n125 GND.n124 76
R145 GND.n8 GND.n7 34.942
R146 GND.n6 GND.n5 14.167
R147 GND.n5 GND.n4 14.167
R148 GND.n41 GND.n39 14.167
R149 GND.n83 GND.n81 14.167
R150 GND.n244 GND.n242 14.167
R151 GND.n205 GND.n204 14.167
R152 GND.n163 GND.n162 14.167
R153 GND.n124 GND.n123 13.653
R154 GND.n129 GND.n126 13.653
R155 GND.n132 GND.n131 13.653
R156 GND.n135 GND.n134 13.653
R157 GND.n138 GND.n137 13.653
R158 GND.n141 GND.n140 13.653
R159 GND.n144 GND.n143 13.653
R160 GND.n147 GND.n146 13.653
R161 GND.n150 GND.n149 13.653
R162 GND.n153 GND.n152 13.653
R163 GND.n156 GND.n155 13.653
R164 GND.n163 GND.n158 13.653
R165 GND.n166 GND.n165 13.653
R166 GND.n171 GND.n168 13.653
R167 GND.n174 GND.n173 13.653
R168 GND.n177 GND.n176 13.653
R169 GND.n180 GND.n179 13.653
R170 GND.n183 GND.n182 13.653
R171 GND.n186 GND.n185 13.653
R172 GND.n189 GND.n188 13.653
R173 GND.n192 GND.n191 13.653
R174 GND.n195 GND.n194 13.653
R175 GND.n198 GND.n197 13.653
R176 GND.n205 GND.n200 13.653
R177 GND.n208 GND.n207 13.653
R178 GND.n213 GND.n210 13.653
R179 GND.n216 GND.n215 13.653
R180 GND.n219 GND.n218 13.653
R181 GND.n222 GND.n221 13.653
R182 GND.n225 GND.n224 13.653
R183 GND.n228 GND.n227 13.653
R184 GND.n231 GND.n230 13.653
R185 GND.n234 GND.n233 13.653
R186 GND.n237 GND.n236 13.653
R187 GND.n244 GND.n243 13.653
R188 GND.n118 GND.n117 13.653
R189 GND.n115 GND.n114 13.653
R190 GND.n112 GND.n109 13.653
R191 GND.n107 GND.n106 13.653
R192 GND.n104 GND.n103 13.653
R193 GND.n101 GND.n100 13.653
R194 GND.n98 GND.n97 13.653
R195 GND.n95 GND.n94 13.653
R196 GND.n92 GND.n91 13.653
R197 GND.n89 GND.n88 13.653
R198 GND.n86 GND.n85 13.653
R199 GND.n83 GND.n82 13.653
R200 GND.n76 GND.n75 13.653
R201 GND.n73 GND.n72 13.653
R202 GND.n70 GND.n67 13.653
R203 GND.n65 GND.n64 13.653
R204 GND.n62 GND.n61 13.653
R205 GND.n59 GND.n58 13.653
R206 GND.n56 GND.n55 13.653
R207 GND.n53 GND.n52 13.653
R208 GND.n50 GND.n49 13.653
R209 GND.n47 GND.n46 13.653
R210 GND.n44 GND.n43 13.653
R211 GND.n41 GND.n40 13.653
R212 GND.n34 GND.n33 13.653
R213 GND.n31 GND.n30 13.653
R214 GND.n28 GND.n25 13.653
R215 GND.n23 GND.n22 13.653
R216 GND.n20 GND.n19 13.653
R217 GND.n17 GND.n16 13.653
R218 GND.n14 GND.n13 13.653
R219 GND.n11 GND.n10 13.653
R220 GND.n4 GND.n3 13.653
R221 GND.n5 GND.n2 13.653
R222 GND.n6 GND.n1 13.653
R223 GND.n39 GND.n38 7.312
R224 GND.n162 GND.n161 7.312
R225 GND.n204 GND.n203 7.312
R226 GND.n242 GND.n241 7.312
R227 GND.n81 GND.n80 7.312
R228 GND.n7 GND.n0 7.083
R229 GND.n7 GND.n6 6.474
R230 GND.n121 GND.n120 0.596
R231 GND.n42 GND.n35 0.29
R232 GND.n84 GND.n77 0.29
R233 GND.n206 GND.n199 0.29
R234 GND.n164 GND.n157 0.29
R235 GND.n122 GND 0.207
R236 GND.n18 GND.n15 0.197
R237 GND.n60 GND.n57 0.197
R238 GND.n102 GND.n99 0.197
R239 GND.n226 GND.n223 0.197
R240 GND.n184 GND.n181 0.197
R241 GND.n142 GND.n139 0.197
R242 GND.n28 GND.n27 0.196
R243 GND.n70 GND.n69 0.196
R244 GND.n112 GND.n111 0.196
R245 GND.n213 GND.n212 0.196
R246 GND.n171 GND.n170 0.196
R247 GND.n129 GND.n128 0.196
R248 GND.n9 GND.n8 0.145
R249 GND.n12 GND.n9 0.145
R250 GND.n15 GND.n12 0.145
R251 GND.n21 GND.n18 0.145
R252 GND.n24 GND.n21 0.145
R253 GND.n29 GND.n24 0.145
R254 GND.n32 GND.n29 0.145
R255 GND.n35 GND.n32 0.145
R256 GND.n45 GND.n42 0.145
R257 GND.n48 GND.n45 0.145
R258 GND.n51 GND.n48 0.145
R259 GND.n54 GND.n51 0.145
R260 GND.n57 GND.n54 0.145
R261 GND.n63 GND.n60 0.145
R262 GND.n66 GND.n63 0.145
R263 GND.n71 GND.n66 0.145
R264 GND.n74 GND.n71 0.145
R265 GND.n77 GND.n74 0.145
R266 GND.n87 GND.n84 0.145
R267 GND.n90 GND.n87 0.145
R268 GND.n93 GND.n90 0.145
R269 GND.n96 GND.n93 0.145
R270 GND.n99 GND.n96 0.145
R271 GND.n105 GND.n102 0.145
R272 GND.n108 GND.n105 0.145
R273 GND.n113 GND.n108 0.145
R274 GND.n116 GND.n113 0.145
R275 GND.n119 GND.n116 0.145
R276 GND GND.n119 0.145
R277 GND GND.n245 0.145
R278 GND.n245 GND.n238 0.145
R279 GND.n238 GND.n235 0.145
R280 GND.n235 GND.n232 0.145
R281 GND.n232 GND.n229 0.145
R282 GND.n229 GND.n226 0.145
R283 GND.n223 GND.n220 0.145
R284 GND.n220 GND.n217 0.145
R285 GND.n217 GND.n214 0.145
R286 GND.n214 GND.n209 0.145
R287 GND.n209 GND.n206 0.145
R288 GND.n199 GND.n196 0.145
R289 GND.n196 GND.n193 0.145
R290 GND.n193 GND.n190 0.145
R291 GND.n190 GND.n187 0.145
R292 GND.n187 GND.n184 0.145
R293 GND.n181 GND.n178 0.145
R294 GND.n178 GND.n175 0.145
R295 GND.n175 GND.n172 0.145
R296 GND.n172 GND.n167 0.145
R297 GND.n167 GND.n164 0.145
R298 GND.n157 GND.n154 0.145
R299 GND.n154 GND.n151 0.145
R300 GND.n151 GND.n148 0.145
R301 GND.n148 GND.n145 0.145
R302 GND.n145 GND.n142 0.145
R303 GND.n139 GND.n136 0.145
R304 GND.n136 GND.n133 0.145
R305 GND.n133 GND.n130 0.145
R306 GND.n130 GND.n125 0.145
R307 GND.n125 GND.n122 0.145
R308 a_2201_1050.n5 a_2201_1050.t7 512.525
R309 a_2201_1050.n5 a_2201_1050.t8 371.139
R310 a_2201_1050.n6 a_2201_1050.t9 234.562
R311 a_2201_1050.n7 a_2201_1050.n4 223.905
R312 a_2201_1050.n6 a_2201_1050.n5 215.819
R313 a_2201_1050.n9 a_2201_1050.n7 166.52
R314 a_2201_1050.n7 a_2201_1050.n6 153.315
R315 a_2201_1050.n3 a_2201_1050.n2 79.232
R316 a_2201_1050.n4 a_2201_1050.n3 63.152
R317 a_2201_1050.n4 a_2201_1050.n0 16.08
R318 a_2201_1050.n3 a_2201_1050.n1 16.08
R319 a_2201_1050.n9 a_2201_1050.n8 15.218
R320 a_2201_1050.n0 a_2201_1050.t5 14.282
R321 a_2201_1050.n0 a_2201_1050.t6 14.282
R322 a_2201_1050.n1 a_2201_1050.t3 14.282
R323 a_2201_1050.n1 a_2201_1050.t0 14.282
R324 a_2201_1050.n2 a_2201_1050.t1 14.282
R325 a_2201_1050.n2 a_2201_1050.t4 14.282
R326 a_2201_1050.n10 a_2201_1050.n9 12.014
R327 a_1561_989.n7 a_1561_989.t14 454.685
R328 a_1561_989.n9 a_1561_989.t7 454.685
R329 a_1561_989.n5 a_1561_989.t15 454.685
R330 a_1561_989.n7 a_1561_989.t8 428.979
R331 a_1561_989.n9 a_1561_989.t11 428.979
R332 a_1561_989.n5 a_1561_989.t13 428.979
R333 a_1561_989.n8 a_1561_989.t9 264.512
R334 a_1561_989.n6 a_1561_989.t12 264.512
R335 a_1561_989.n10 a_1561_989.t10 264.173
R336 a_1561_989.n15 a_1561_989.n13 246.179
R337 a_1561_989.n13 a_1561_989.n4 144.246
R338 a_1561_989.n12 a_1561_989.n6 82.484
R339 a_1561_989.n11 a_1561_989.n10 79.495
R340 a_1561_989.n3 a_1561_989.n2 79.232
R341 a_1561_989.n11 a_1561_989.n8 76
R342 a_1561_989.n13 a_1561_989.n12 76
R343 a_1561_989.n8 a_1561_989.n7 71.894
R344 a_1561_989.n6 a_1561_989.n5 71.894
R345 a_1561_989.n10 a_1561_989.n9 71.555
R346 a_1561_989.n4 a_1561_989.n3 63.152
R347 a_1561_989.n4 a_1561_989.n0 16.08
R348 a_1561_989.n3 a_1561_989.n1 16.08
R349 a_1561_989.n15 a_1561_989.n14 15.218
R350 a_1561_989.n0 a_1561_989.t0 14.282
R351 a_1561_989.n0 a_1561_989.t4 14.282
R352 a_1561_989.n1 a_1561_989.t3 14.282
R353 a_1561_989.n1 a_1561_989.t2 14.282
R354 a_1561_989.n2 a_1561_989.t6 14.282
R355 a_1561_989.n2 a_1561_989.t5 14.282
R356 a_1561_989.n16 a_1561_989.n15 12.014
R357 a_1561_989.n12 a_1561_989.n11 4.035
R358 VDD.n344 VDD.n342 144.705
R359 VDD.n502 VDD.n500 144.705
R360 VDD.n425 VDD.n423 144.705
R361 VDD.n184 VDD.n182 144.705
R362 VDD.n103 VDD.n101 144.705
R363 VDD.n43 VDD.n42 76
R364 VDD.n48 VDD.n47 76
R365 VDD.n53 VDD.n52 76
R366 VDD.n60 VDD.n59 76
R367 VDD.n65 VDD.n64 76
R368 VDD.n70 VDD.n69 76
R369 VDD.n74 VDD.n73 76
R370 VDD.n78 VDD.n77 76
R371 VDD.n105 VDD.n104 76
R372 VDD.n109 VDD.n108 76
R373 VDD.n113 VDD.n112 76
R374 VDD.n118 VDD.n117 76
R375 VDD.n125 VDD.n124 76
R376 VDD.n130 VDD.n129 76
R377 VDD.n135 VDD.n134 76
R378 VDD.n142 VDD.n141 76
R379 VDD.n147 VDD.n146 76
R380 VDD.n152 VDD.n151 76
R381 VDD.n156 VDD.n155 76
R382 VDD.n160 VDD.n159 76
R383 VDD.n186 VDD.n185 76
R384 VDD.n190 VDD.n189 76
R385 VDD.n194 VDD.n193 76
R386 VDD.n199 VDD.n198 76
R387 VDD.n206 VDD.n205 76
R388 VDD.n211 VDD.n210 76
R389 VDD.n216 VDD.n215 76
R390 VDD.n223 VDD.n222 76
R391 VDD.n228 VDD.n227 76
R392 VDD.n233 VDD.n232 76
R393 VDD.n237 VDD.n236 76
R394 VDD.n241 VDD.n240 76
R395 VDD.n504 VDD.n503 76
R396 VDD.n478 VDD.n477 76
R397 VDD.n474 VDD.n473 76
R398 VDD.n470 VDD.n469 76
R399 VDD.n465 VDD.n464 76
R400 VDD.n458 VDD.n457 76
R401 VDD.n453 VDD.n452 76
R402 VDD.n448 VDD.n447 76
R403 VDD.n441 VDD.n440 76
R404 VDD.n436 VDD.n435 76
R405 VDD.n431 VDD.n430 76
R406 VDD.n427 VDD.n426 76
R407 VDD.n401 VDD.n400 76
R408 VDD.n397 VDD.n396 76
R409 VDD.n393 VDD.n392 76
R410 VDD.n389 VDD.n388 76
R411 VDD.n384 VDD.n383 76
R412 VDD.n377 VDD.n376 76
R413 VDD.n372 VDD.n371 76
R414 VDD.n367 VDD.n366 76
R415 VDD.n360 VDD.n359 76
R416 VDD.n355 VDD.n354 76
R417 VDD.n350 VDD.n349 76
R418 VDD.n346 VDD.n345 76
R419 VDD.n319 VDD.n318 76
R420 VDD.n315 VDD.n314 76
R421 VDD.n311 VDD.n310 76
R422 VDD.n307 VDD.n306 76
R423 VDD.n302 VDD.n301 76
R424 VDD.n295 VDD.n294 76
R425 VDD.n290 VDD.n289 76
R426 VDD.n285 VDD.n284 76
R427 VDD.n278 VDD.n277 76
R428 VDD.n273 VDD.n272 76
R429 VDD.n268 VDD.n267 76
R430 VDD.n264 VDD.n263 76
R431 VDD.n27 VDD.n26 64.064
R432 VDD.n115 VDD.n114 64.064
R433 VDD.n196 VDD.n195 64.064
R434 VDD.n467 VDD.n466 64.064
R435 VDD.n386 VDD.n385 64.064
R436 VDD.n304 VDD.n303 64.064
R437 VDD.n62 VDD.n61 59.488
R438 VDD.n144 VDD.n143 59.488
R439 VDD.n225 VDD.n224 59.488
R440 VDD.n438 VDD.n437 59.488
R441 VDD.n357 VDD.n356 59.488
R442 VDD.n275 VDD.n274 59.488
R443 VDD.n269 VDD.t20 55.106
R444 VDD.n351 VDD.t34 55.106
R445 VDD.n432 VDD.t19 55.106
R446 VDD.n229 VDD.t31 55.106
R447 VDD.n148 VDD.t7 55.106
R448 VDD.n66 VDD.t22 55.106
R449 VDD.n310 VDD.t0 55.106
R450 VDD.n392 VDD.t26 55.106
R451 VDD.n473 VDD.t29 55.106
R452 VDD.n193 VDD.t2 55.106
R453 VDD.n112 VDD.t4 55.106
R454 VDD.n30 VDD.t30 55.106
R455 VDD.n280 VDD.n279 40.824
R456 VDD.n300 VDD.n299 40.824
R457 VDD.n362 VDD.n361 40.824
R458 VDD.n382 VDD.n381 40.824
R459 VDD.n443 VDD.n442 40.824
R460 VDD.n463 VDD.n462 40.824
R461 VDD.n218 VDD.n217 40.824
R462 VDD.n204 VDD.n203 40.824
R463 VDD.n137 VDD.n136 40.824
R464 VDD.n123 VDD.n122 40.824
R465 VDD.n55 VDD.n54 40.824
R466 VDD.n41 VDD.n40 40.824
R467 VDD.n406 VDD.n405 36.774
R468 VDD.n483 VDD.n482 36.774
R469 VDD.n165 VDD.n164 36.774
R470 VDD.n83 VDD.n82 36.774
R471 VDD.n335 VDD.n334 36.774
R472 VDD.n35 VDD.n34 34.942
R473 VDD.n38 VDD.n37 27.456
R474 VDD.n120 VDD.n119 27.456
R475 VDD.n201 VDD.n200 27.456
R476 VDD.n460 VDD.n459 27.456
R477 VDD.n379 VDD.n378 27.456
R478 VDD.n297 VDD.n296 27.456
R479 VDD.n57 VDD.n56 22.88
R480 VDD.n139 VDD.n138 22.88
R481 VDD.n220 VDD.n219 22.88
R482 VDD.n445 VDD.n444 22.88
R483 VDD.n364 VDD.n363 22.88
R484 VDD.n282 VDD.n281 22.88
R485 VDD.n263 VDD.n260 21.841
R486 VDD.n23 VDD.n20 21.841
R487 VDD.n279 VDD.t18 14.282
R488 VDD.n279 VDD.t6 14.282
R489 VDD.n299 VDD.t3 14.282
R490 VDD.n299 VDD.t9 14.282
R491 VDD.n361 VDD.t11 14.282
R492 VDD.n361 VDD.t35 14.282
R493 VDD.n381 VDD.t25 14.282
R494 VDD.n381 VDD.t10 14.282
R495 VDD.n442 VDD.t1 14.282
R496 VDD.n442 VDD.t5 14.282
R497 VDD.n462 VDD.t28 14.282
R498 VDD.n462 VDD.t17 14.282
R499 VDD.n217 VDD.t12 14.282
R500 VDD.n217 VDD.t32 14.282
R501 VDD.n203 VDD.t15 14.282
R502 VDD.n203 VDD.t13 14.282
R503 VDD.n136 VDD.t16 14.282
R504 VDD.n136 VDD.t24 14.282
R505 VDD.n122 VDD.t33 14.282
R506 VDD.n122 VDD.t14 14.282
R507 VDD.n54 VDD.t8 14.282
R508 VDD.n54 VDD.t21 14.282
R509 VDD.n40 VDD.t27 14.282
R510 VDD.n40 VDD.t23 14.282
R511 VDD.n260 VDD.n243 14.167
R512 VDD.n243 VDD.n242 14.167
R513 VDD.n421 VDD.n403 14.167
R514 VDD.n403 VDD.n402 14.167
R515 VDD.n498 VDD.n480 14.167
R516 VDD.n480 VDD.n479 14.167
R517 VDD.n180 VDD.n162 14.167
R518 VDD.n162 VDD.n161 14.167
R519 VDD.n99 VDD.n80 14.167
R520 VDD.n80 VDD.n79 14.167
R521 VDD.n340 VDD.n321 14.167
R522 VDD.n321 VDD.n320 14.167
R523 VDD.n20 VDD.n19 14.167
R524 VDD.n19 VDD.n17 14.167
R525 VDD.n33 VDD.n30 14.167
R526 VDD.n30 VDD.n29 14.167
R527 VDD.n104 VDD.n100 14.167
R528 VDD.n185 VDD.n181 14.167
R529 VDD.n503 VDD.n499 14.167
R530 VDD.n426 VDD.n422 14.167
R531 VDD.n345 VDD.n341 14.167
R532 VDD.n50 VDD.n49 13.728
R533 VDD.n132 VDD.n131 13.728
R534 VDD.n213 VDD.n212 13.728
R535 VDD.n450 VDD.n449 13.728
R536 VDD.n369 VDD.n368 13.728
R537 VDD.n287 VDD.n286 13.728
R538 VDD.n23 VDD.n22 13.653
R539 VDD.n22 VDD.n21 13.653
R540 VDD.n33 VDD.n32 13.653
R541 VDD.n32 VDD.n31 13.653
R542 VDD.n30 VDD.n25 13.653
R543 VDD.n25 VDD.n24 13.653
R544 VDD.n29 VDD.n28 13.653
R545 VDD.n28 VDD.n27 13.653
R546 VDD.n42 VDD.n39 13.653
R547 VDD.n39 VDD.n38 13.653
R548 VDD.n47 VDD.n46 13.653
R549 VDD.n46 VDD.n45 13.653
R550 VDD.n52 VDD.n51 13.653
R551 VDD.n51 VDD.n50 13.653
R552 VDD.n59 VDD.n58 13.653
R553 VDD.n58 VDD.n57 13.653
R554 VDD.n64 VDD.n63 13.653
R555 VDD.n63 VDD.n62 13.653
R556 VDD.n69 VDD.n68 13.653
R557 VDD.n68 VDD.n67 13.653
R558 VDD.n73 VDD.n72 13.653
R559 VDD.n72 VDD.n71 13.653
R560 VDD.n77 VDD.n76 13.653
R561 VDD.n76 VDD.n75 13.653
R562 VDD.n104 VDD.n103 13.653
R563 VDD.n103 VDD.n102 13.653
R564 VDD.n108 VDD.n107 13.653
R565 VDD.n107 VDD.n106 13.653
R566 VDD.n112 VDD.n111 13.653
R567 VDD.n111 VDD.n110 13.653
R568 VDD.n117 VDD.n116 13.653
R569 VDD.n116 VDD.n115 13.653
R570 VDD.n124 VDD.n121 13.653
R571 VDD.n121 VDD.n120 13.653
R572 VDD.n129 VDD.n128 13.653
R573 VDD.n128 VDD.n127 13.653
R574 VDD.n134 VDD.n133 13.653
R575 VDD.n133 VDD.n132 13.653
R576 VDD.n141 VDD.n140 13.653
R577 VDD.n140 VDD.n139 13.653
R578 VDD.n146 VDD.n145 13.653
R579 VDD.n145 VDD.n144 13.653
R580 VDD.n151 VDD.n150 13.653
R581 VDD.n150 VDD.n149 13.653
R582 VDD.n155 VDD.n154 13.653
R583 VDD.n154 VDD.n153 13.653
R584 VDD.n159 VDD.n158 13.653
R585 VDD.n158 VDD.n157 13.653
R586 VDD.n185 VDD.n184 13.653
R587 VDD.n184 VDD.n183 13.653
R588 VDD.n189 VDD.n188 13.653
R589 VDD.n188 VDD.n187 13.653
R590 VDD.n193 VDD.n192 13.653
R591 VDD.n192 VDD.n191 13.653
R592 VDD.n198 VDD.n197 13.653
R593 VDD.n197 VDD.n196 13.653
R594 VDD.n205 VDD.n202 13.653
R595 VDD.n202 VDD.n201 13.653
R596 VDD.n210 VDD.n209 13.653
R597 VDD.n209 VDD.n208 13.653
R598 VDD.n215 VDD.n214 13.653
R599 VDD.n214 VDD.n213 13.653
R600 VDD.n222 VDD.n221 13.653
R601 VDD.n221 VDD.n220 13.653
R602 VDD.n227 VDD.n226 13.653
R603 VDD.n226 VDD.n225 13.653
R604 VDD.n232 VDD.n231 13.653
R605 VDD.n231 VDD.n230 13.653
R606 VDD.n236 VDD.n235 13.653
R607 VDD.n235 VDD.n234 13.653
R608 VDD.n240 VDD.n239 13.653
R609 VDD.n239 VDD.n238 13.653
R610 VDD.n503 VDD.n502 13.653
R611 VDD.n502 VDD.n501 13.653
R612 VDD.n477 VDD.n476 13.653
R613 VDD.n476 VDD.n475 13.653
R614 VDD.n473 VDD.n472 13.653
R615 VDD.n472 VDD.n471 13.653
R616 VDD.n469 VDD.n468 13.653
R617 VDD.n468 VDD.n467 13.653
R618 VDD.n464 VDD.n461 13.653
R619 VDD.n461 VDD.n460 13.653
R620 VDD.n457 VDD.n456 13.653
R621 VDD.n456 VDD.n455 13.653
R622 VDD.n452 VDD.n451 13.653
R623 VDD.n451 VDD.n450 13.653
R624 VDD.n447 VDD.n446 13.653
R625 VDD.n446 VDD.n445 13.653
R626 VDD.n440 VDD.n439 13.653
R627 VDD.n439 VDD.n438 13.653
R628 VDD.n435 VDD.n434 13.653
R629 VDD.n434 VDD.n433 13.653
R630 VDD.n430 VDD.n429 13.653
R631 VDD.n429 VDD.n428 13.653
R632 VDD.n426 VDD.n425 13.653
R633 VDD.n425 VDD.n424 13.653
R634 VDD.n400 VDD.n399 13.653
R635 VDD.n399 VDD.n398 13.653
R636 VDD.n396 VDD.n395 13.653
R637 VDD.n395 VDD.n394 13.653
R638 VDD.n392 VDD.n391 13.653
R639 VDD.n391 VDD.n390 13.653
R640 VDD.n388 VDD.n387 13.653
R641 VDD.n387 VDD.n386 13.653
R642 VDD.n383 VDD.n380 13.653
R643 VDD.n380 VDD.n379 13.653
R644 VDD.n376 VDD.n375 13.653
R645 VDD.n375 VDD.n374 13.653
R646 VDD.n371 VDD.n370 13.653
R647 VDD.n370 VDD.n369 13.653
R648 VDD.n366 VDD.n365 13.653
R649 VDD.n365 VDD.n364 13.653
R650 VDD.n359 VDD.n358 13.653
R651 VDD.n358 VDD.n357 13.653
R652 VDD.n354 VDD.n353 13.653
R653 VDD.n353 VDD.n352 13.653
R654 VDD.n349 VDD.n348 13.653
R655 VDD.n348 VDD.n347 13.653
R656 VDD.n345 VDD.n344 13.653
R657 VDD.n344 VDD.n343 13.653
R658 VDD.n318 VDD.n317 13.653
R659 VDD.n317 VDD.n316 13.653
R660 VDD.n314 VDD.n313 13.653
R661 VDD.n313 VDD.n312 13.653
R662 VDD.n310 VDD.n309 13.653
R663 VDD.n309 VDD.n308 13.653
R664 VDD.n306 VDD.n305 13.653
R665 VDD.n305 VDD.n304 13.653
R666 VDD.n301 VDD.n298 13.653
R667 VDD.n298 VDD.n297 13.653
R668 VDD.n294 VDD.n293 13.653
R669 VDD.n293 VDD.n292 13.653
R670 VDD.n289 VDD.n288 13.653
R671 VDD.n288 VDD.n287 13.653
R672 VDD.n284 VDD.n283 13.653
R673 VDD.n283 VDD.n282 13.653
R674 VDD.n277 VDD.n276 13.653
R675 VDD.n276 VDD.n275 13.653
R676 VDD.n272 VDD.n271 13.653
R677 VDD.n271 VDD.n270 13.653
R678 VDD.n267 VDD.n266 13.653
R679 VDD.n266 VDD.n265 13.653
R680 VDD.n263 VDD.n262 13.653
R681 VDD.n262 VDD.n261 13.653
R682 VDD.n4 VDD.n2 12.915
R683 VDD.n4 VDD.n3 12.66
R684 VDD.n10 VDD.n9 12.343
R685 VDD.n12 VDD.n11 12.343
R686 VDD.n10 VDD.n7 12.343
R687 VDD.n45 VDD.n44 9.152
R688 VDD.n127 VDD.n126 9.152
R689 VDD.n208 VDD.n207 9.152
R690 VDD.n455 VDD.n454 9.152
R691 VDD.n374 VDD.n373 9.152
R692 VDD.n292 VDD.n291 9.152
R693 VDD.n422 VDD.n421 7.674
R694 VDD.n499 VDD.n498 7.674
R695 VDD.n181 VDD.n180 7.674
R696 VDD.n100 VDD.n99 7.674
R697 VDD.n341 VDD.n340 7.674
R698 VDD.n94 VDD.n93 7.5
R699 VDD.n88 VDD.n87 7.5
R700 VDD.n90 VDD.n89 7.5
R701 VDD.n85 VDD.n84 7.5
R702 VDD.n99 VDD.n98 7.5
R703 VDD.n175 VDD.n174 7.5
R704 VDD.n169 VDD.n168 7.5
R705 VDD.n171 VDD.n170 7.5
R706 VDD.n177 VDD.n167 7.5
R707 VDD.n177 VDD.n165 7.5
R708 VDD.n180 VDD.n179 7.5
R709 VDD.n493 VDD.n492 7.5
R710 VDD.n487 VDD.n486 7.5
R711 VDD.n489 VDD.n488 7.5
R712 VDD.n495 VDD.n485 7.5
R713 VDD.n495 VDD.n483 7.5
R714 VDD.n498 VDD.n497 7.5
R715 VDD.n416 VDD.n415 7.5
R716 VDD.n410 VDD.n409 7.5
R717 VDD.n412 VDD.n411 7.5
R718 VDD.n418 VDD.n408 7.5
R719 VDD.n418 VDD.n406 7.5
R720 VDD.n421 VDD.n420 7.5
R721 VDD.n325 VDD.n324 7.5
R722 VDD.n328 VDD.n327 7.5
R723 VDD.n330 VDD.n329 7.5
R724 VDD.n333 VDD.n332 7.5
R725 VDD.n340 VDD.n339 7.5
R726 VDD.n255 VDD.n254 7.5
R727 VDD.n249 VDD.n248 7.5
R728 VDD.n251 VDD.n250 7.5
R729 VDD.n257 VDD.n247 7.5
R730 VDD.n257 VDD.n245 7.5
R731 VDD.n260 VDD.n259 7.5
R732 VDD.n20 VDD.n16 7.5
R733 VDD.n2 VDD.n1 7.5
R734 VDD.n9 VDD.n8 7.5
R735 VDD.n7 VDD.n6 7.5
R736 VDD.n19 VDD.n18 7.5
R737 VDD.n14 VDD.n0 7.5
R738 VDD.n86 VDD.n83 6.772
R739 VDD.n97 VDD.n81 6.772
R740 VDD.n95 VDD.n92 6.772
R741 VDD.n91 VDD.n88 6.772
R742 VDD.n178 VDD.n163 6.772
R743 VDD.n176 VDD.n173 6.772
R744 VDD.n172 VDD.n169 6.772
R745 VDD.n496 VDD.n481 6.772
R746 VDD.n494 VDD.n491 6.772
R747 VDD.n490 VDD.n487 6.772
R748 VDD.n419 VDD.n404 6.772
R749 VDD.n417 VDD.n414 6.772
R750 VDD.n413 VDD.n410 6.772
R751 VDD.n258 VDD.n244 6.772
R752 VDD.n256 VDD.n253 6.772
R753 VDD.n252 VDD.n249 6.772
R754 VDD.n86 VDD.n85 6.772
R755 VDD.n91 VDD.n90 6.772
R756 VDD.n95 VDD.n94 6.772
R757 VDD.n98 VDD.n97 6.772
R758 VDD.n172 VDD.n171 6.772
R759 VDD.n176 VDD.n175 6.772
R760 VDD.n179 VDD.n178 6.772
R761 VDD.n490 VDD.n489 6.772
R762 VDD.n494 VDD.n493 6.772
R763 VDD.n497 VDD.n496 6.772
R764 VDD.n413 VDD.n412 6.772
R765 VDD.n417 VDD.n416 6.772
R766 VDD.n420 VDD.n419 6.772
R767 VDD.n252 VDD.n251 6.772
R768 VDD.n256 VDD.n255 6.772
R769 VDD.n259 VDD.n258 6.772
R770 VDD.n339 VDD.n338 6.772
R771 VDD.n326 VDD.n323 6.772
R772 VDD.n331 VDD.n328 6.772
R773 VDD.n336 VDD.n333 6.772
R774 VDD.n336 VDD.n335 6.772
R775 VDD.n331 VDD.n330 6.772
R776 VDD.n326 VDD.n325 6.772
R777 VDD.n338 VDD.n322 6.772
R778 VDD.n59 VDD.n55 6.69
R779 VDD.n141 VDD.n137 6.69
R780 VDD.n222 VDD.n218 6.69
R781 VDD.n447 VDD.n443 6.69
R782 VDD.n366 VDD.n362 6.69
R783 VDD.n284 VDD.n280 6.69
R784 VDD.n34 VDD.n23 6.487
R785 VDD.n34 VDD.n33 6.475
R786 VDD.n16 VDD.n15 6.458
R787 VDD.n42 VDD.n41 6.296
R788 VDD.n124 VDD.n123 6.296
R789 VDD.n205 VDD.n204 6.296
R790 VDD.n464 VDD.n463 6.296
R791 VDD.n383 VDD.n382 6.296
R792 VDD.n301 VDD.n300 6.296
R793 VDD.n167 VDD.n166 6.202
R794 VDD.n485 VDD.n484 6.202
R795 VDD.n408 VDD.n407 6.202
R796 VDD.n247 VDD.n246 6.202
R797 VDD.n14 VDD.n5 1.329
R798 VDD.n14 VDD.n10 1.329
R799 VDD.n14 VDD.n12 1.329
R800 VDD.n14 VDD.n13 1.329
R801 VDD.n15 VDD.n14 0.696
R802 VDD.n14 VDD.n4 0.696
R803 VDD.n69 VDD.n66 0.393
R804 VDD.n151 VDD.n148 0.393
R805 VDD.n232 VDD.n229 0.393
R806 VDD.n435 VDD.n432 0.393
R807 VDD.n354 VDD.n351 0.393
R808 VDD.n272 VDD.n269 0.393
R809 VDD.n96 VDD.n95 0.365
R810 VDD.n96 VDD.n91 0.365
R811 VDD.n96 VDD.n86 0.365
R812 VDD.n97 VDD.n96 0.365
R813 VDD.n177 VDD.n176 0.365
R814 VDD.n177 VDD.n172 0.365
R815 VDD.n178 VDD.n177 0.365
R816 VDD.n495 VDD.n494 0.365
R817 VDD.n495 VDD.n490 0.365
R818 VDD.n496 VDD.n495 0.365
R819 VDD.n418 VDD.n417 0.365
R820 VDD.n418 VDD.n413 0.365
R821 VDD.n419 VDD.n418 0.365
R822 VDD.n257 VDD.n256 0.365
R823 VDD.n257 VDD.n252 0.365
R824 VDD.n258 VDD.n257 0.365
R825 VDD.n337 VDD.n336 0.365
R826 VDD.n337 VDD.n331 0.365
R827 VDD.n337 VDD.n326 0.365
R828 VDD.n338 VDD.n337 0.365
R829 VDD.n105 VDD.n78 0.29
R830 VDD.n186 VDD.n160 0.29
R831 VDD.n427 VDD.n401 0.29
R832 VDD.n346 VDD.n319 0.29
R833 VDD.n264 VDD 0.207
R834 VDD.n53 VDD.n48 0.197
R835 VDD.n135 VDD.n130 0.197
R836 VDD.n216 VDD.n211 0.197
R837 VDD.n458 VDD.n453 0.197
R838 VDD.n377 VDD.n372 0.197
R839 VDD.n295 VDD.n290 0.197
R840 VDD.n36 VDD.n35 0.145
R841 VDD.n43 VDD.n36 0.145
R842 VDD.n48 VDD.n43 0.145
R843 VDD.n60 VDD.n53 0.145
R844 VDD.n65 VDD.n60 0.145
R845 VDD.n70 VDD.n65 0.145
R846 VDD.n74 VDD.n70 0.145
R847 VDD.n78 VDD.n74 0.145
R848 VDD.n109 VDD.n105 0.145
R849 VDD.n113 VDD.n109 0.145
R850 VDD.n118 VDD.n113 0.145
R851 VDD.n125 VDD.n118 0.145
R852 VDD.n130 VDD.n125 0.145
R853 VDD.n142 VDD.n135 0.145
R854 VDD.n147 VDD.n142 0.145
R855 VDD.n152 VDD.n147 0.145
R856 VDD.n156 VDD.n152 0.145
R857 VDD.n160 VDD.n156 0.145
R858 VDD.n190 VDD.n186 0.145
R859 VDD.n194 VDD.n190 0.145
R860 VDD.n199 VDD.n194 0.145
R861 VDD.n206 VDD.n199 0.145
R862 VDD.n211 VDD.n206 0.145
R863 VDD.n223 VDD.n216 0.145
R864 VDD.n228 VDD.n223 0.145
R865 VDD.n233 VDD.n228 0.145
R866 VDD.n237 VDD.n233 0.145
R867 VDD.n241 VDD.n237 0.145
R868 VDD VDD.n241 0.145
R869 VDD VDD.n504 0.145
R870 VDD.n504 VDD.n478 0.145
R871 VDD.n478 VDD.n474 0.145
R872 VDD.n474 VDD.n470 0.145
R873 VDD.n470 VDD.n465 0.145
R874 VDD.n465 VDD.n458 0.145
R875 VDD.n453 VDD.n448 0.145
R876 VDD.n448 VDD.n441 0.145
R877 VDD.n441 VDD.n436 0.145
R878 VDD.n436 VDD.n431 0.145
R879 VDD.n431 VDD.n427 0.145
R880 VDD.n401 VDD.n397 0.145
R881 VDD.n397 VDD.n393 0.145
R882 VDD.n393 VDD.n389 0.145
R883 VDD.n389 VDD.n384 0.145
R884 VDD.n384 VDD.n377 0.145