* SPICE3 file created from DFFX1.ext - technology: sky130A

.subckt DFFX1 Q QN D CLK VDD GND
M1000 a_599_989.t3 D.t0 VDD.t6 pshort w=2u l=0.15u
+  ad=0p pd=0u as=0p ps=0u
M1001 GND a_1845_1050.t5 a_2406_101.t0 nshort w=-1.605u l=1.765u
+  ad=1.0746p pd=9.42u as=0p ps=0u
M1002 a_1845_1050.t4 a_599_989.t5 VDD.t14 pshort w=2u l=0.15u
+  ad=0p pd=0u as=0p ps=0u
M1003 VDD.t12 a_147_187.t6 a_1845_1050.t1 pshort w=2u l=0.15u
+  ad=0p pd=0u as=0p ps=0u
M1004 QN Q.t5 a_3072_101.t0 nshort w=-1.605u l=1.765u
+  ad=0.1791p pd=1.57u as=0p ps=0u
M1005 VDD.t5 a_147_187.t7 a_277_1050.t1 pshort w=2u l=0.15u
+  ad=0p pd=0u as=0p ps=0u
M1006 GND a_147_187.t8 a_91_103.t0 nshort w=-1.605u l=1.765u
+  ad=0p pd=0u as=0p ps=0u
M1007 QN.t4 a_277_1050.t7 VDD.t16 pshort w=2u l=0.15u
+  ad=0p pd=0u as=0p ps=0u
M1008 VDD.t13 a_1845_1050.t6 a_147_187.t1 pshort w=2u l=0.15u
+  ad=0p pd=0u as=0p ps=0u
M1009 VDD.t20 CLK.t0 a_277_1050.t6 pshort w=2u l=0.15u
+  ad=0p pd=0u as=0p ps=0u
M1010 GND a_599_989.t8 a_1740_101.t0 nshort w=-1.605u l=1.765u
+  ad=0p pd=0u as=0p ps=0u
M1011 VDD.t25 CLK.t1 a_147_187.t4 pshort w=2u l=0.15u
+  ad=0p pd=0u as=0p ps=0u
M1012 QN.t2 Q.t6 VDD.t22 pshort w=2u l=0.15u
+  ad=0p pd=0u as=0p ps=0u
M1013 Q.t0 QN.t5 VDD.t1 pshort w=2u l=0.15u
+  ad=0p pd=0u as=0p ps=0u
M1014 VDD.t9 a_599_989.t7 a_277_1050.t3 pshort w=2u l=0.15u
+  ad=0p pd=0u as=0p ps=0u
M1015 VDD.t24 a_277_1050.t8 a_599_989.t4 pshort w=2u l=0.15u
+  ad=0p pd=0u as=0p ps=0u
M1016 VDD.t23 a_147_187.t9 Q.t4 pshort w=2u l=0.15u
+  ad=0p pd=0u as=0p ps=0u
M1017 a_1845_1050.t0 a_147_187.t10 VDD.t15 pshort w=2u l=0.15u
+  ad=0p pd=0u as=0p ps=0u
M1018 GND QN.t6 a_3738_101.t0 nshort w=-1.605u l=1.765u
+  ad=0p pd=0u as=0p ps=0u
M1019 Q.t3 a_147_187.t11 VDD.t11 pshort w=2u l=0.15u
+  ad=0p pd=0u as=0p ps=0u
M1020 VDD.t7 D.t2 a_599_989.t2 pshort w=2u l=0.15u
+  ad=0p pd=0u as=0p ps=0u
M1021 a_277_1050.t0 a_147_187.t12 VDD.t8 pshort w=2u l=0.15u
+  ad=0p pd=0u as=0p ps=0u
M1022 GND a_277_1050.t10 a_1074_101.t0 nshort w=-1.605u l=1.765u
+  ad=0p pd=0u as=0p ps=0u
M1023 VDD.t0 a_599_989.t9 a_1845_1050.t3 pshort w=2u l=0.15u
+  ad=0p pd=0u as=0p ps=0u
M1024 a_277_1050.t5 CLK.t4 VDD.t19 pshort w=2u l=0.15u
+  ad=0p pd=0u as=0p ps=0u
M1025 VDD.t4 a_277_1050.t9 QN.t3 pshort w=2u l=0.15u
+  ad=0p pd=0u as=0p ps=0u
M1026 a_147_187.t2 CLK.t5 VDD.t18 pshort w=2u l=0.15u
+  ad=0p pd=0u as=0p ps=0u
M1027 GND a_277_1050.t12 a_3072_101.t0 nshort w=-1.605u l=1.765u
+  ad=0p pd=0u as=0p ps=0u
M1028 a_277_1050.t2 a_599_989.t10 VDD.t21 pshort w=2u l=0.15u
+  ad=0p pd=0u as=0p ps=0u
M1029 a_599_989.t0 a_277_1050.t11 VDD.t3 pshort w=2u l=0.15u
+  ad=0p pd=0u as=0p ps=0u
M1030 Q a_147_187.t5 a_3738_101.t0 nshort w=-1.605u l=1.765u
+  ad=0.1791p pd=1.57u as=0p ps=0u
M1031 a_147_187.t0 a_1845_1050.t7 VDD.t2 pshort w=2u l=0.15u
+  ad=0p pd=0u as=0p ps=0u
M1032 VDD.t17 Q.t7 QN.t1 pshort w=2u l=0.15u
+  ad=0p pd=0u as=0p ps=0u
M1033 VDD.t10 QN.t7 Q.t1 pshort w=2u l=0.15u
+  ad=0p pd=0u as=0p ps=0u
C0 Q VDD 1.43fF
C1 VDD CLK 0.40fF
C2 VDD D 0.07fF
C3 QN VDD 1.47fF
C4 CLK D 0.07fF
C5 Q QN 0.94fF
R0 D.n0 D.t2 472.359
R1 D.n0 D.t0 384.527
R2 D.n1 D.t1 220.772
R3 D.n1 D.n0 136.613
R4 D.n2 D.n1 76
R5 D.n2 D 0.046
R6 VDD.n315 VDD.n313 144.705
R7 VDD.n205 VDD.n203 144.705
R8 VDD.n376 VDD.n374 144.705
R9 VDD.n144 VDD.n142 144.705
R10 VDD.n83 VDD.n81 144.705
R11 VDD.n44 VDD.n43 76
R12 VDD.n49 VDD.n48 76
R13 VDD.n54 VDD.n53 76
R14 VDD.n58 VDD.n57 76
R15 VDD.n85 VDD.n84 76
R16 VDD.n90 VDD.n89 76
R17 VDD.n95 VDD.n94 76
R18 VDD.n101 VDD.n100 76
R19 VDD.n106 VDD.n105 76
R20 VDD.n111 VDD.n110 76
R21 VDD.n116 VDD.n115 76
R22 VDD.n120 VDD.n119 76
R23 VDD.n146 VDD.n145 76
R24 VDD.n151 VDD.n150 76
R25 VDD.n156 VDD.n155 76
R26 VDD.n162 VDD.n161 76
R27 VDD.n167 VDD.n166 76
R28 VDD.n172 VDD.n171 76
R29 VDD.n177 VDD.n176 76
R30 VDD.n181 VDD.n180 76
R31 VDD.n207 VDD.n206 76
R32 VDD.n212 VDD.n211 76
R33 VDD.n404 VDD.n403 76
R34 VDD.n399 VDD.n398 76
R35 VDD.n393 VDD.n392 76
R36 VDD.n388 VDD.n387 76
R37 VDD.n383 VDD.n382 76
R38 VDD.n378 VDD.n377 76
R39 VDD.n352 VDD.n351 76
R40 VDD.n348 VDD.n347 76
R41 VDD.n343 VDD.n342 76
R42 VDD.n338 VDD.n337 76
R43 VDD.n332 VDD.n331 76
R44 VDD.n327 VDD.n326 76
R45 VDD.n322 VDD.n321 76
R46 VDD.n317 VDD.n316 76
R47 VDD.n290 VDD.n289 76
R48 VDD.n286 VDD.n285 76
R49 VDD.n282 VDD.n281 76
R50 VDD.n278 VDD.n277 76
R51 VDD.n273 VDD.n272 76
R52 VDD.n266 VDD.n265 76
R53 VDD.n261 VDD.n260 76
R54 VDD.n256 VDD.n255 76
R55 VDD.n249 VDD.n248 76
R56 VDD.n244 VDD.n243 76
R57 VDD.n239 VDD.n238 76
R58 VDD.n235 VDD.n234 76
R59 VDD.n275 VDD.n274 64.064
R60 VDD.n246 VDD.n245 59.488
R61 VDD.n240 VDD.t8 55.106
R62 VDD.n318 VDD.t3 55.106
R63 VDD.n379 VDD.t14 55.106
R64 VDD.n173 VDD.t2 55.106
R65 VDD.n112 VDD.t16 55.106
R66 VDD.n50 VDD.t1 55.106
R67 VDD.n281 VDD.t9 55.106
R68 VDD.n344 VDD.t7 55.106
R69 VDD.n208 VDD.t12 55.106
R70 VDD.n147 VDD.t25 55.106
R71 VDD.n86 VDD.t17 55.106
R72 VDD.n33 VDD.t23 55.106
R73 VDD.n251 VDD.n250 40.824
R74 VDD.n271 VDD.n270 40.824
R75 VDD.n334 VDD.n333 40.824
R76 VDD.n395 VDD.n394 40.824
R77 VDD.n158 VDD.n157 40.824
R78 VDD.n97 VDD.n96 40.824
R79 VDD.n28 VDD.n27 40.824
R80 VDD.n357 VDD.n356 36.774
R81 VDD.n186 VDD.n185 36.774
R82 VDD.n125 VDD.n124 36.774
R83 VDD.n63 VDD.n62 36.774
R84 VDD.n306 VDD.n305 36.774
R85 VDD.n25 VDD.n24 36.608
R86 VDD.n92 VDD.n91 36.608
R87 VDD.n153 VDD.n152 36.608
R88 VDD.n401 VDD.n400 36.608
R89 VDD.n340 VDD.n339 36.608
R90 VDD.n38 VDD.n37 34.942
R91 VDD.n46 VDD.n45 32.032
R92 VDD.n108 VDD.n107 32.032
R93 VDD.n169 VDD.n168 32.032
R94 VDD.n385 VDD.n384 32.032
R95 VDD.n324 VDD.n323 32.032
R96 VDD.n268 VDD.n267 27.456
R97 VDD.n253 VDD.n252 22.88
R98 VDD.n234 VDD.n231 21.841
R99 VDD.n23 VDD.n20 21.841
R100 VDD.n250 VDD.t19 14.282
R101 VDD.n250 VDD.t5 14.282
R102 VDD.n270 VDD.t21 14.282
R103 VDD.n270 VDD.t20 14.282
R104 VDD.n333 VDD.t6 14.282
R105 VDD.n333 VDD.t24 14.282
R106 VDD.n394 VDD.t15 14.282
R107 VDD.n394 VDD.t0 14.282
R108 VDD.n157 VDD.t18 14.282
R109 VDD.n157 VDD.t13 14.282
R110 VDD.n96 VDD.t22 14.282
R111 VDD.n96 VDD.t4 14.282
R112 VDD.n27 VDD.t11 14.282
R113 VDD.n27 VDD.t10 14.282
R114 VDD.n231 VDD.n214 14.167
R115 VDD.n214 VDD.n213 14.167
R116 VDD.n372 VDD.n354 14.167
R117 VDD.n354 VDD.n353 14.167
R118 VDD.n201 VDD.n183 14.167
R119 VDD.n183 VDD.n182 14.167
R120 VDD.n140 VDD.n122 14.167
R121 VDD.n122 VDD.n121 14.167
R122 VDD.n79 VDD.n60 14.167
R123 VDD.n60 VDD.n59 14.167
R124 VDD.n311 VDD.n292 14.167
R125 VDD.n292 VDD.n291 14.167
R126 VDD.n20 VDD.n19 14.167
R127 VDD.n19 VDD.n17 14.167
R128 VDD.n32 VDD.n31 14.167
R129 VDD.n84 VDD.n80 14.167
R130 VDD.n145 VDD.n141 14.167
R131 VDD.n206 VDD.n202 14.167
R132 VDD.n377 VDD.n373 14.167
R133 VDD.n316 VDD.n312 14.167
R134 VDD.n258 VDD.n257 13.728
R135 VDD.n23 VDD.n22 13.653
R136 VDD.n22 VDD.n21 13.653
R137 VDD.n36 VDD.n35 13.653
R138 VDD.n35 VDD.n34 13.653
R139 VDD.n32 VDD.n26 13.653
R140 VDD.n26 VDD.n25 13.653
R141 VDD.n31 VDD.n30 13.653
R142 VDD.n30 VDD.n29 13.653
R143 VDD.n43 VDD.n42 13.653
R144 VDD.n42 VDD.n41 13.653
R145 VDD.n48 VDD.n47 13.653
R146 VDD.n47 VDD.n46 13.653
R147 VDD.n53 VDD.n52 13.653
R148 VDD.n52 VDD.n51 13.653
R149 VDD.n57 VDD.n56 13.653
R150 VDD.n56 VDD.n55 13.653
R151 VDD.n84 VDD.n83 13.653
R152 VDD.n83 VDD.n82 13.653
R153 VDD.n89 VDD.n88 13.653
R154 VDD.n88 VDD.n87 13.653
R155 VDD.n94 VDD.n93 13.653
R156 VDD.n93 VDD.n92 13.653
R157 VDD.n100 VDD.n99 13.653
R158 VDD.n99 VDD.n98 13.653
R159 VDD.n105 VDD.n104 13.653
R160 VDD.n104 VDD.n103 13.653
R161 VDD.n110 VDD.n109 13.653
R162 VDD.n109 VDD.n108 13.653
R163 VDD.n115 VDD.n114 13.653
R164 VDD.n114 VDD.n113 13.653
R165 VDD.n119 VDD.n118 13.653
R166 VDD.n118 VDD.n117 13.653
R167 VDD.n145 VDD.n144 13.653
R168 VDD.n144 VDD.n143 13.653
R169 VDD.n150 VDD.n149 13.653
R170 VDD.n149 VDD.n148 13.653
R171 VDD.n155 VDD.n154 13.653
R172 VDD.n154 VDD.n153 13.653
R173 VDD.n161 VDD.n160 13.653
R174 VDD.n160 VDD.n159 13.653
R175 VDD.n166 VDD.n165 13.653
R176 VDD.n165 VDD.n164 13.653
R177 VDD.n171 VDD.n170 13.653
R178 VDD.n170 VDD.n169 13.653
R179 VDD.n176 VDD.n175 13.653
R180 VDD.n175 VDD.n174 13.653
R181 VDD.n180 VDD.n179 13.653
R182 VDD.n179 VDD.n178 13.653
R183 VDD.n206 VDD.n205 13.653
R184 VDD.n205 VDD.n204 13.653
R185 VDD.n211 VDD.n210 13.653
R186 VDD.n210 VDD.n209 13.653
R187 VDD.n403 VDD.n402 13.653
R188 VDD.n402 VDD.n401 13.653
R189 VDD.n398 VDD.n397 13.653
R190 VDD.n397 VDD.n396 13.653
R191 VDD.n392 VDD.n391 13.653
R192 VDD.n391 VDD.n390 13.653
R193 VDD.n387 VDD.n386 13.653
R194 VDD.n386 VDD.n385 13.653
R195 VDD.n382 VDD.n381 13.653
R196 VDD.n381 VDD.n380 13.653
R197 VDD.n377 VDD.n376 13.653
R198 VDD.n376 VDD.n375 13.653
R199 VDD.n351 VDD.n350 13.653
R200 VDD.n350 VDD.n349 13.653
R201 VDD.n347 VDD.n346 13.653
R202 VDD.n346 VDD.n345 13.653
R203 VDD.n342 VDD.n341 13.653
R204 VDD.n341 VDD.n340 13.653
R205 VDD.n337 VDD.n336 13.653
R206 VDD.n336 VDD.n335 13.653
R207 VDD.n331 VDD.n330 13.653
R208 VDD.n330 VDD.n329 13.653
R209 VDD.n326 VDD.n325 13.653
R210 VDD.n325 VDD.n324 13.653
R211 VDD.n321 VDD.n320 13.653
R212 VDD.n320 VDD.n319 13.653
R213 VDD.n316 VDD.n315 13.653
R214 VDD.n315 VDD.n314 13.653
R215 VDD.n289 VDD.n288 13.653
R216 VDD.n288 VDD.n287 13.653
R217 VDD.n285 VDD.n284 13.653
R218 VDD.n284 VDD.n283 13.653
R219 VDD.n281 VDD.n280 13.653
R220 VDD.n280 VDD.n279 13.653
R221 VDD.n277 VDD.n276 13.653
R222 VDD.n276 VDD.n275 13.653
R223 VDD.n272 VDD.n269 13.653
R224 VDD.n269 VDD.n268 13.653
R225 VDD.n265 VDD.n264 13.653
R226 VDD.n264 VDD.n263 13.653
R227 VDD.n260 VDD.n259 13.653
R228 VDD.n259 VDD.n258 13.653
R229 VDD.n255 VDD.n254 13.653
R230 VDD.n254 VDD.n253 13.653
R231 VDD.n248 VDD.n247 13.653
R232 VDD.n247 VDD.n246 13.653
R233 VDD.n243 VDD.n242 13.653
R234 VDD.n242 VDD.n241 13.653
R235 VDD.n238 VDD.n237 13.653
R236 VDD.n237 VDD.n236 13.653
R237 VDD.n234 VDD.n233 13.653
R238 VDD.n233 VDD.n232 13.653
R239 VDD.n4 VDD.n2 12.915
R240 VDD.n4 VDD.n3 12.66
R241 VDD.n12 VDD.n11 12.343
R242 VDD.n8 VDD.n7 12.343
R243 VDD.n12 VDD.n9 12.343
R244 VDD.n33 VDD.n32 11.806
R245 VDD.n263 VDD.n262 9.152
R246 VDD.n31 VDD.n28 8.658
R247 VDD.n100 VDD.n97 8.658
R248 VDD.n161 VDD.n158 8.658
R249 VDD.n398 VDD.n395 8.658
R250 VDD.n337 VDD.n334 8.658
R251 VDD.n373 VDD.n372 7.674
R252 VDD.n202 VDD.n201 7.674
R253 VDD.n141 VDD.n140 7.674
R254 VDD.n80 VDD.n79 7.674
R255 VDD.n312 VDD.n311 7.674
R256 VDD.n74 VDD.n73 7.5
R257 VDD.n68 VDD.n67 7.5
R258 VDD.n70 VDD.n69 7.5
R259 VDD.n65 VDD.n64 7.5
R260 VDD.n79 VDD.n78 7.5
R261 VDD.n135 VDD.n134 7.5
R262 VDD.n129 VDD.n128 7.5
R263 VDD.n131 VDD.n130 7.5
R264 VDD.n137 VDD.n127 7.5
R265 VDD.n137 VDD.n125 7.5
R266 VDD.n140 VDD.n139 7.5
R267 VDD.n196 VDD.n195 7.5
R268 VDD.n190 VDD.n189 7.5
R269 VDD.n192 VDD.n191 7.5
R270 VDD.n198 VDD.n188 7.5
R271 VDD.n198 VDD.n186 7.5
R272 VDD.n201 VDD.n200 7.5
R273 VDD.n367 VDD.n366 7.5
R274 VDD.n361 VDD.n360 7.5
R275 VDD.n363 VDD.n362 7.5
R276 VDD.n369 VDD.n359 7.5
R277 VDD.n369 VDD.n357 7.5
R278 VDD.n372 VDD.n371 7.5
R279 VDD.n296 VDD.n295 7.5
R280 VDD.n299 VDD.n298 7.5
R281 VDD.n301 VDD.n300 7.5
R282 VDD.n304 VDD.n303 7.5
R283 VDD.n311 VDD.n310 7.5
R284 VDD.n226 VDD.n225 7.5
R285 VDD.n220 VDD.n219 7.5
R286 VDD.n222 VDD.n221 7.5
R287 VDD.n228 VDD.n218 7.5
R288 VDD.n228 VDD.n216 7.5
R289 VDD.n231 VDD.n230 7.5
R290 VDD.n20 VDD.n16 7.5
R291 VDD.n2 VDD.n1 7.5
R292 VDD.n7 VDD.n6 7.5
R293 VDD.n11 VDD.n10 7.5
R294 VDD.n19 VDD.n18 7.5
R295 VDD.n14 VDD.n0 7.5
R296 VDD.n66 VDD.n63 6.772
R297 VDD.n77 VDD.n61 6.772
R298 VDD.n75 VDD.n72 6.772
R299 VDD.n71 VDD.n68 6.772
R300 VDD.n138 VDD.n123 6.772
R301 VDD.n136 VDD.n133 6.772
R302 VDD.n132 VDD.n129 6.772
R303 VDD.n199 VDD.n184 6.772
R304 VDD.n197 VDD.n194 6.772
R305 VDD.n193 VDD.n190 6.772
R306 VDD.n370 VDD.n355 6.772
R307 VDD.n368 VDD.n365 6.772
R308 VDD.n364 VDD.n361 6.772
R309 VDD.n229 VDD.n215 6.772
R310 VDD.n227 VDD.n224 6.772
R311 VDD.n223 VDD.n220 6.772
R312 VDD.n66 VDD.n65 6.772
R313 VDD.n71 VDD.n70 6.772
R314 VDD.n75 VDD.n74 6.772
R315 VDD.n78 VDD.n77 6.772
R316 VDD.n132 VDD.n131 6.772
R317 VDD.n136 VDD.n135 6.772
R318 VDD.n139 VDD.n138 6.772
R319 VDD.n193 VDD.n192 6.772
R320 VDD.n197 VDD.n196 6.772
R321 VDD.n200 VDD.n199 6.772
R322 VDD.n364 VDD.n363 6.772
R323 VDD.n368 VDD.n367 6.772
R324 VDD.n371 VDD.n370 6.772
R325 VDD.n223 VDD.n222 6.772
R326 VDD.n227 VDD.n226 6.772
R327 VDD.n230 VDD.n229 6.772
R328 VDD.n310 VDD.n309 6.772
R329 VDD.n297 VDD.n294 6.772
R330 VDD.n302 VDD.n299 6.772
R331 VDD.n307 VDD.n304 6.772
R332 VDD.n307 VDD.n306 6.772
R333 VDD.n302 VDD.n301 6.772
R334 VDD.n297 VDD.n296 6.772
R335 VDD.n309 VDD.n293 6.772
R336 VDD.n255 VDD.n251 6.69
R337 VDD.n37 VDD.n23 6.487
R338 VDD.n37 VDD.n36 6.475
R339 VDD.n16 VDD.n15 6.458
R340 VDD.n272 VDD.n271 6.296
R341 VDD.n127 VDD.n126 6.202
R342 VDD.n188 VDD.n187 6.202
R343 VDD.n359 VDD.n358 6.202
R344 VDD.n218 VDD.n217 6.202
R345 VDD.n41 VDD.n40 4.576
R346 VDD.n103 VDD.n102 4.576
R347 VDD.n164 VDD.n163 4.576
R348 VDD.n390 VDD.n389 4.576
R349 VDD.n329 VDD.n328 4.576
R350 VDD.n53 VDD.n50 2.754
R351 VDD.n115 VDD.n112 2.754
R352 VDD.n176 VDD.n173 2.754
R353 VDD.n382 VDD.n379 2.754
R354 VDD.n321 VDD.n318 2.754
R355 VDD.n36 VDD.n33 2.361
R356 VDD.n89 VDD.n86 2.361
R357 VDD.n150 VDD.n147 2.361
R358 VDD.n211 VDD.n208 2.361
R359 VDD.n347 VDD.n344 2.361
R360 VDD.n14 VDD.n5 1.329
R361 VDD.n14 VDD.n8 1.329
R362 VDD.n14 VDD.n12 1.329
R363 VDD.n14 VDD.n13 1.329
R364 VDD.n15 VDD.n14 0.696
R365 VDD.n14 VDD.n4 0.696
R366 VDD.n243 VDD.n240 0.393
R367 VDD.n76 VDD.n75 0.365
R368 VDD.n76 VDD.n71 0.365
R369 VDD.n76 VDD.n66 0.365
R370 VDD.n77 VDD.n76 0.365
R371 VDD.n137 VDD.n136 0.365
R372 VDD.n137 VDD.n132 0.365
R373 VDD.n138 VDD.n137 0.365
R374 VDD.n198 VDD.n197 0.365
R375 VDD.n198 VDD.n193 0.365
R376 VDD.n199 VDD.n198 0.365
R377 VDD.n369 VDD.n368 0.365
R378 VDD.n369 VDD.n364 0.365
R379 VDD.n370 VDD.n369 0.365
R380 VDD.n228 VDD.n227 0.365
R381 VDD.n228 VDD.n223 0.365
R382 VDD.n229 VDD.n228 0.365
R383 VDD.n308 VDD.n307 0.365
R384 VDD.n308 VDD.n302 0.365
R385 VDD.n308 VDD.n297 0.365
R386 VDD.n309 VDD.n308 0.365
R387 VDD.n85 VDD.n58 0.29
R388 VDD.n146 VDD.n120 0.29
R389 VDD.n207 VDD.n181 0.29
R390 VDD.n378 VDD.n352 0.29
R391 VDD.n317 VDD.n290 0.29
R392 VDD.n235 VDD 0.207
R393 VDD.n266 VDD.n261 0.197
R394 VDD.n44 VDD.n39 0.181
R395 VDD.n106 VDD.n101 0.181
R396 VDD.n167 VDD.n162 0.181
R397 VDD.n399 VDD.n393 0.181
R398 VDD.n338 VDD.n332 0.181
R399 VDD.n39 VDD.n38 0.145
R400 VDD.n49 VDD.n44 0.145
R401 VDD.n54 VDD.n49 0.145
R402 VDD.n58 VDD.n54 0.145
R403 VDD.n90 VDD.n85 0.145
R404 VDD.n95 VDD.n90 0.145
R405 VDD.n101 VDD.n95 0.145
R406 VDD.n111 VDD.n106 0.145
R407 VDD.n116 VDD.n111 0.145
R408 VDD.n120 VDD.n116 0.145
R409 VDD.n151 VDD.n146 0.145
R410 VDD.n156 VDD.n151 0.145
R411 VDD.n162 VDD.n156 0.145
R412 VDD.n172 VDD.n167 0.145
R413 VDD.n177 VDD.n172 0.145
R414 VDD.n181 VDD.n177 0.145
R415 VDD.n212 VDD.n207 0.145
R416 VDD.n404 VDD.n399 0.145
R417 VDD.n393 VDD.n388 0.145
R418 VDD.n388 VDD.n383 0.145
R419 VDD.n383 VDD.n378 0.145
R420 VDD.n352 VDD.n348 0.145
R421 VDD.n348 VDD.n343 0.145
R422 VDD.n343 VDD.n338 0.145
R423 VDD.n332 VDD.n327 0.145
R424 VDD.n327 VDD.n322 0.145
R425 VDD.n322 VDD.n317 0.145
R426 VDD.n290 VDD.n286 0.145
R427 VDD.n286 VDD.n282 0.145
R428 VDD.n282 VDD.n278 0.145
R429 VDD.n278 VDD.n273 0.145
R430 VDD.n273 VDD.n266 0.145
R431 VDD.n261 VDD.n256 0.145
R432 VDD.n256 VDD.n249 0.145
R433 VDD.n249 VDD.n244 0.145
R434 VDD.n244 VDD.n239 0.145
R435 VDD.n239 VDD.n235 0.145
R436 VDD VDD.n404 0.137
R437 VDD VDD.n212 0.008
R438 a_599_989.n0 a_599_989.t9 480.392
R439 a_599_989.n2 a_599_989.t10 454.685
R440 a_599_989.n2 a_599_989.t7 428.979
R441 a_599_989.n0 a_599_989.t5 403.272
R442 a_599_989.n1 a_599_989.t8 283.48
R443 a_599_989.n3 a_599_989.t6 237.959
R444 a_599_989.n9 a_599_989.n8 210.592
R445 a_599_989.n11 a_599_989.n9 152.499
R446 a_599_989.n3 a_599_989.n2 98.447
R447 a_599_989.n1 a_599_989.n0 98.447
R448 a_599_989.n4 a_599_989.n3 78.947
R449 a_599_989.n4 a_599_989.n1 77.315
R450 a_599_989.n11 a_599_989.n10 76.002
R451 a_599_989.n9 a_599_989.n4 76
R452 a_599_989.n8 a_599_989.n7 30
R453 a_599_989.n6 a_599_989.n5 24.383
R454 a_599_989.n8 a_599_989.n6 23.684
R455 a_599_989.n10 a_599_989.t4 14.282
R456 a_599_989.n10 a_599_989.t0 14.282
R457 a_599_989.n12 a_599_989.t2 14.282
R458 a_599_989.t3 a_599_989.n12 14.282
R459 a_599_989.n12 a_599_989.n11 12.848
R460 a_147_187.n8 a_147_187.t7 512.525
R461 a_147_187.n6 a_147_187.t6 472.359
R462 a_147_187.n4 a_147_187.t9 472.359
R463 a_147_187.n6 a_147_187.t10 384.527
R464 a_147_187.n4 a_147_187.t11 384.527
R465 a_147_187.n8 a_147_187.t12 371.139
R466 a_147_187.n9 a_147_187.t8 340.774
R467 a_147_187.n7 a_147_187.t13 294.278
R468 a_147_187.n5 a_147_187.t5 294.278
R469 a_147_187.n14 a_147_187.n12 263.698
R470 a_147_187.n9 a_147_187.n8 109.607
R471 a_147_187.n12 a_147_187.n3 99.394
R472 a_147_187.n10 a_147_187.n9 82.484
R473 a_147_187.n11 a_147_187.n5 80.307
R474 a_147_187.n3 a_147_187.n2 76.002
R475 a_147_187.n10 a_147_187.n7 76
R476 a_147_187.n12 a_147_187.n11 76
R477 a_147_187.n7 a_147_187.n6 56.954
R478 a_147_187.n5 a_147_187.n4 56.954
R479 a_147_187.n14 a_147_187.n13 30
R480 a_147_187.n15 a_147_187.n0 24.383
R481 a_147_187.n15 a_147_187.n14 23.684
R482 a_147_187.n1 a_147_187.t4 14.282
R483 a_147_187.n1 a_147_187.t2 14.282
R484 a_147_187.n2 a_147_187.t1 14.282
R485 a_147_187.n2 a_147_187.t0 14.282
R486 a_147_187.n3 a_147_187.n1 12.85
R487 a_147_187.n11 a_147_187.n10 2.947
R488 a_3738_101.n5 a_3738_101.n4 24.877
R489 a_3738_101.t0 a_3738_101.n5 12.677
R490 a_3738_101.t0 a_3738_101.n3 11.595
R491 a_3738_101.t0 a_3738_101.n6 8.137
R492 a_3738_101.n2 a_3738_101.n0 4.031
R493 a_3738_101.n2 a_3738_101.n1 3.644
R494 a_3738_101.t0 a_3738_101.n2 1.093
R495 Q.n5 Q.t7 472.359
R496 Q.n5 Q.t6 384.527
R497 Q.n6 Q.t5 267.725
R498 Q.n4 Q.n3 258.884
R499 Q.n4 Q.n2 125.947
R500 Q.n6 Q.n5 83.507
R501 Q Q.n6 78.901
R502 Q.n2 Q.n1 76.002
R503 Q.n7 Q.n4 76
R504 Q.n0 Q.t4 14.282
R505 Q.n0 Q.t3 14.282
R506 Q.n1 Q.t1 14.282
R507 Q.n1 Q.t0 14.282
R508 Q.n2 Q.n0 12.85
R509 Q.n7 Q 0.046
R510 a_1845_1050.n0 a_1845_1050.t6 480.392
R511 a_1845_1050.n0 a_1845_1050.t7 403.272
R512 a_1845_1050.n1 a_1845_1050.t5 283.48
R513 a_1845_1050.n6 a_1845_1050.n5 210.592
R514 a_1845_1050.n6 a_1845_1050.n1 153.315
R515 a_1845_1050.n8 a_1845_1050.n6 152.499
R516 a_1845_1050.n1 a_1845_1050.n0 98.447
R517 a_1845_1050.n8 a_1845_1050.n7 76.002
R518 a_1845_1050.n5 a_1845_1050.n4 30
R519 a_1845_1050.n3 a_1845_1050.n2 24.383
R520 a_1845_1050.n5 a_1845_1050.n3 23.684
R521 a_1845_1050.n7 a_1845_1050.t3 14.282
R522 a_1845_1050.n7 a_1845_1050.t4 14.282
R523 a_1845_1050.t1 a_1845_1050.n9 14.282
R524 a_1845_1050.n9 a_1845_1050.t0 14.282
R525 a_1845_1050.n9 a_1845_1050.n8 12.848
R526 a_1074_101.t0 a_1074_101.n1 34.62
R527 a_1074_101.t0 a_1074_101.n0 8.137
R528 a_1074_101.t0 a_1074_101.n2 4.69
R529 a_277_1050.n4 a_277_1050.t8 480.392
R530 a_277_1050.n2 a_277_1050.t9 480.392
R531 a_277_1050.n4 a_277_1050.t11 403.272
R532 a_277_1050.n2 a_277_1050.t7 403.272
R533 a_277_1050.n5 a_277_1050.t10 310.033
R534 a_277_1050.n3 a_277_1050.t12 310.033
R535 a_277_1050.n11 a_277_1050.n10 239.657
R536 a_277_1050.n12 a_277_1050.n11 144.246
R537 a_277_1050.n6 a_277_1050.n3 83.3
R538 a_277_1050.n14 a_277_1050.n13 79.231
R539 a_277_1050.n11 a_277_1050.n6 77.315
R540 a_277_1050.n6 a_277_1050.n5 76
R541 a_277_1050.n5 a_277_1050.n4 71.894
R542 a_277_1050.n3 a_277_1050.n2 71.894
R543 a_277_1050.n13 a_277_1050.n12 63.152
R544 a_277_1050.n10 a_277_1050.n9 30
R545 a_277_1050.n8 a_277_1050.n7 24.383
R546 a_277_1050.n10 a_277_1050.n8 23.684
R547 a_277_1050.n12 a_277_1050.n1 16.08
R548 a_277_1050.n13 a_277_1050.n0 16.08
R549 a_277_1050.n1 a_277_1050.t3 14.282
R550 a_277_1050.n1 a_277_1050.t2 14.282
R551 a_277_1050.n0 a_277_1050.t6 14.282
R552 a_277_1050.n0 a_277_1050.t5 14.282
R553 a_277_1050.t1 a_277_1050.n14 14.282
R554 a_277_1050.n14 a_277_1050.t0 14.282
R555 QN.n0 QN.t7 480.392
R556 QN.n0 QN.t5 403.272
R557 QN.n1 QN.t6 283.48
R558 QN.n9 QN.n8 210.592
R559 QN.n9 QN.n4 152.499
R560 QN.n1 QN.n0 98.447
R561 QN QN.n9 77.269
R562 QN.n4 QN.n3 76.002
R563 QN.n10 QN.n1 76
R564 QN.n8 QN.n7 30
R565 QN.n6 QN.n5 24.383
R566 QN.n8 QN.n6 23.684
R567 QN.n2 QN.t1 14.282
R568 QN.n2 QN.t2 14.282
R569 QN.n3 QN.t3 14.282
R570 QN.n3 QN.t4 14.282
R571 QN.n4 QN.n2 12.85
R572 QN.n10 QN 0.046
R573 a_372_210.n10 a_372_210.n8 82.852
R574 a_372_210.n11 a_372_210.n0 49.6
R575 a_372_210.n7 a_372_210.n6 32.833
R576 a_372_210.n8 a_372_210.t1 32.416
R577 a_372_210.n10 a_372_210.n9 27.2
R578 a_372_210.n3 a_372_210.n2 23.284
R579 a_372_210.n11 a_372_210.n10 22.4
R580 a_372_210.n7 a_372_210.n4 19.017
R581 a_372_210.n6 a_372_210.n5 13.494
R582 a_372_210.t1 a_372_210.n1 7.04
R583 a_372_210.t1 a_372_210.n3 5.727
R584 a_372_210.n8 a_372_210.n7 1.435
R585 a_2406_101.n10 a_2406_101.n9 93.333
R586 a_2406_101.n2 a_2406_101.n1 41.622
R587 a_2406_101.n13 a_2406_101.n12 26.667
R588 a_2406_101.n6 a_2406_101.n5 24.977
R589 a_2406_101.t0 a_2406_101.n2 21.209
R590 a_2406_101.t0 a_2406_101.n3 11.595
R591 a_2406_101.t1 a_2406_101.n8 8.137
R592 a_2406_101.t0 a_2406_101.n0 6.109
R593 a_2406_101.t1 a_2406_101.n7 4.864
R594 a_2406_101.t0 a_2406_101.n4 3.871
R595 a_2406_101.t0 a_2406_101.n13 2.535
R596 a_2406_101.n13 a_2406_101.t1 1.145
R597 a_2406_101.n7 a_2406_101.n6 1.13
R598 a_2406_101.t1 a_2406_101.n11 0.804
R599 a_2406_101.n11 a_2406_101.n10 0.136
R600 GND.n26 GND.n24 219.745
R601 GND.n141 GND.n140 219.745
R602 GND.n171 GND.n169 219.745
R603 GND.n89 GND.n87 219.745
R604 GND.n59 GND.n58 219.745
R605 GND.n26 GND.n25 85.529
R606 GND.n141 GND.n139 85.529
R607 GND.n171 GND.n170 85.529
R608 GND.n89 GND.n88 85.529
R609 GND.n59 GND.n57 85.529
R610 GND.n14 GND.n13 84.842
R611 GND.n77 GND.n76 84.842
R612 GND.n149 GND.n148 84.842
R613 GND.n99 GND.n98 76
R614 GND.n12 GND.n11 76
R615 GND.n17 GND.n16 76
R616 GND.n20 GND.n19 76
R617 GND.n23 GND.n22 76
R618 GND.n30 GND.n29 76
R619 GND.n33 GND.n32 76
R620 GND.n36 GND.n35 76
R621 GND.n39 GND.n38 76
R622 GND.n42 GND.n41 76
R623 GND.n50 GND.n49 76
R624 GND.n53 GND.n52 76
R625 GND.n56 GND.n55 76
R626 GND.n63 GND.n62 76
R627 GND.n66 GND.n65 76
R628 GND.n69 GND.n68 76
R629 GND.n72 GND.n71 76
R630 GND.n75 GND.n74 76
R631 GND.n80 GND.n79 76
R632 GND.n83 GND.n82 76
R633 GND.n86 GND.n85 76
R634 GND.n93 GND.n92 76
R635 GND.n96 GND.n95 76
R636 GND.n194 GND.n193 76
R637 GND.n191 GND.n190 76
R638 GND.n188 GND.n187 76
R639 GND.n185 GND.n184 76
R640 GND.n177 GND.n176 76
R641 GND.n174 GND.n173 76
R642 GND.n167 GND.n166 76
R643 GND.n164 GND.n163 76
R644 GND.n161 GND.n160 76
R645 GND.n158 GND.n157 76
R646 GND.n155 GND.n154 76
R647 GND.n152 GND.n151 76
R648 GND.n147 GND.n146 76
R649 GND.n144 GND.n143 76
R650 GND.n137 GND.n136 76
R651 GND.n134 GND.n133 76
R652 GND.n131 GND.n130 76
R653 GND.n128 GND.n127 76
R654 GND.n125 GND.n124 76
R655 GND.n122 GND.n121 76
R656 GND.n119 GND.n118 76
R657 GND.n116 GND.n115 76
R658 GND.n113 GND.n112 76
R659 GND.n110 GND.n109 76
R660 GND.n102 GND.n101 76
R661 GND.n108 GND.n107 64.552
R662 GND.n47 GND.n46 63.835
R663 GND.n182 GND.n181 63.835
R664 GND.n8 GND.n7 34.942
R665 GND.n46 GND.n45 28.421
R666 GND.n181 GND.n180 28.421
R667 GND.n107 GND.n106 28.421
R668 GND.n46 GND.n44 25.263
R669 GND.n181 GND.n179 25.263
R670 GND.n107 GND.n105 25.263
R671 GND.n44 GND.n43 24.383
R672 GND.n179 GND.n178 24.383
R673 GND.n105 GND.n104 24.383
R674 GND.n6 GND.n5 14.167
R675 GND.n5 GND.n4 14.167
R676 GND.n29 GND.n27 14.167
R677 GND.n62 GND.n60 14.167
R678 GND.n92 GND.n90 14.167
R679 GND.n173 GND.n172 14.167
R680 GND.n143 GND.n142 14.167
R681 GND.n101 GND.n100 13.653
R682 GND.n109 GND.n103 13.653
R683 GND.n112 GND.n111 13.653
R684 GND.n115 GND.n114 13.653
R685 GND.n118 GND.n117 13.653
R686 GND.n121 GND.n120 13.653
R687 GND.n124 GND.n123 13.653
R688 GND.n127 GND.n126 13.653
R689 GND.n130 GND.n129 13.653
R690 GND.n133 GND.n132 13.653
R691 GND.n136 GND.n135 13.653
R692 GND.n143 GND.n138 13.653
R693 GND.n146 GND.n145 13.653
R694 GND.n151 GND.n150 13.653
R695 GND.n154 GND.n153 13.653
R696 GND.n157 GND.n156 13.653
R697 GND.n160 GND.n159 13.653
R698 GND.n163 GND.n162 13.653
R699 GND.n166 GND.n165 13.653
R700 GND.n173 GND.n168 13.653
R701 GND.n176 GND.n175 13.653
R702 GND.n184 GND.n183 13.653
R703 GND.n187 GND.n186 13.653
R704 GND.n190 GND.n189 13.653
R705 GND.n193 GND.n192 13.653
R706 GND.n95 GND.n94 13.653
R707 GND.n92 GND.n91 13.653
R708 GND.n85 GND.n84 13.653
R709 GND.n82 GND.n81 13.653
R710 GND.n79 GND.n78 13.653
R711 GND.n74 GND.n73 13.653
R712 GND.n71 GND.n70 13.653
R713 GND.n68 GND.n67 13.653
R714 GND.n65 GND.n64 13.653
R715 GND.n62 GND.n61 13.653
R716 GND.n55 GND.n54 13.653
R717 GND.n52 GND.n51 13.653
R718 GND.n49 GND.n48 13.653
R719 GND.n41 GND.n40 13.653
R720 GND.n38 GND.n37 13.653
R721 GND.n35 GND.n34 13.653
R722 GND.n32 GND.n31 13.653
R723 GND.n29 GND.n28 13.653
R724 GND.n22 GND.n21 13.653
R725 GND.n19 GND.n18 13.653
R726 GND.n16 GND.n15 13.653
R727 GND.n11 GND.n10 13.653
R728 GND.n4 GND.n3 13.653
R729 GND.n5 GND.n2 13.653
R730 GND.n6 GND.n1 13.653
R731 GND.n27 GND.n26 7.312
R732 GND.n142 GND.n141 7.312
R733 GND.n172 GND.n171 7.312
R734 GND.n90 GND.n89 7.312
R735 GND.n60 GND.n59 7.312
R736 GND.n7 GND.n0 7.083
R737 GND.n7 GND.n6 6.474
R738 GND.n16 GND.n14 3.935
R739 GND.n49 GND.n47 3.935
R740 GND.n79 GND.n77 3.935
R741 GND.n184 GND.n182 3.935
R742 GND.n151 GND.n149 3.935
R743 GND.n98 GND.n97 0.596
R744 GND.n30 GND.n23 0.29
R745 GND.n63 GND.n56 0.29
R746 GND.n93 GND.n86 0.29
R747 GND.n174 GND.n167 0.29
R748 GND.n144 GND.n137 0.29
R749 GND.n99 GND 0.207
R750 GND.n122 GND.n119 0.197
R751 GND.n109 GND.n108 0.196
R752 GND.n12 GND.n9 0.181
R753 GND.n42 GND.n39 0.181
R754 GND.n75 GND.n72 0.181
R755 GND.n191 GND.n188 0.181
R756 GND.n158 GND.n155 0.181
R757 GND.n9 GND.n8 0.145
R758 GND.n17 GND.n12 0.145
R759 GND.n20 GND.n17 0.145
R760 GND.n23 GND.n20 0.145
R761 GND.n33 GND.n30 0.145
R762 GND.n36 GND.n33 0.145
R763 GND.n39 GND.n36 0.145
R764 GND.n50 GND.n42 0.145
R765 GND.n53 GND.n50 0.145
R766 GND.n56 GND.n53 0.145
R767 GND.n66 GND.n63 0.145
R768 GND.n69 GND.n66 0.145
R769 GND.n72 GND.n69 0.145
R770 GND.n80 GND.n75 0.145
R771 GND.n83 GND.n80 0.145
R772 GND.n86 GND.n83 0.145
R773 GND.n96 GND.n93 0.145
R774 GND.n194 GND.n191 0.145
R775 GND.n188 GND.n185 0.145
R776 GND.n185 GND.n177 0.145
R777 GND.n177 GND.n174 0.145
R778 GND.n167 GND.n164 0.145
R779 GND.n164 GND.n161 0.145
R780 GND.n161 GND.n158 0.145
R781 GND.n155 GND.n152 0.145
R782 GND.n152 GND.n147 0.145
R783 GND.n147 GND.n144 0.145
R784 GND.n137 GND.n134 0.145
R785 GND.n134 GND.n131 0.145
R786 GND.n131 GND.n128 0.145
R787 GND.n128 GND.n125 0.145
R788 GND.n125 GND.n122 0.145
R789 GND.n119 GND.n116 0.145
R790 GND.n116 GND.n113 0.145
R791 GND.n113 GND.n110 0.145
R792 GND.n110 GND.n102 0.145
R793 GND.n102 GND.n99 0.145
R794 GND GND.n194 0.137
R795 GND GND.n96 0.008
R796 CLK.n0 CLK.t1 472.359
R797 CLK.n2 CLK.t0 459.505
R798 CLK.n2 CLK.t4 384.527
R799 CLK.n0 CLK.t5 384.527
R800 CLK.n3 CLK.t2 322.152
R801 CLK.n1 CLK.t3 321.724
R802 CLK.n4 CLK.n3 49.342
R803 CLK.n4 CLK.n1 44.933
R804 CLK.n3 CLK.n2 27.599
R805 CLK.n1 CLK.n0 23.329
R806 CLK.n4 CLK 0.046
R807 a_3072_101.t0 a_3072_101.n1 34.62
R808 a_3072_101.t0 a_3072_101.n0 8.137
R809 a_3072_101.t0 a_3072_101.n2 4.69
R810 a_91_103.n5 a_91_103.n4 19.724
R811 a_91_103.t0 a_91_103.n3 11.595
R812 a_91_103.t0 a_91_103.n5 9.207
R813 a_91_103.n2 a_91_103.n1 2.455
R814 a_91_103.n2 a_91_103.n0 1.32
R815 a_91_103.t0 a_91_103.n2 0.246
R816 a_1740_101.t0 a_1740_101.n1 34.62
R817 a_1740_101.t0 a_1740_101.n0 8.137
R818 a_1740_101.t0 a_1740_101.n2 4.69
C6 VDD GND 16.41fF
C7 a_1740_101.n0 GND 0.05fF
C8 a_1740_101.n1 GND 0.12fF
C9 a_1740_101.n2 GND 0.04fF
C10 a_91_103.n0 GND 0.10fF
C11 a_91_103.n1 GND 0.04fF
C12 a_91_103.n2 GND 0.03fF
C13 a_91_103.n3 GND 0.06fF
C14 a_91_103.n4 GND 0.08fF
C15 a_91_103.n5 GND 0.06fF
C16 a_3072_101.n0 GND 0.05fF
C17 a_3072_101.n1 GND 0.12fF
C18 a_3072_101.n2 GND 0.04fF
C19 a_2406_101.n0 GND 0.02fF
C20 a_2406_101.n1 GND 0.10fF
C21 a_2406_101.n2 GND 0.07fF
C22 a_2406_101.n3 GND 0.05fF
C23 a_2406_101.n4 GND 0.00fF
C24 a_2406_101.n5 GND 0.04fF
C25 a_2406_101.n6 GND 0.05fF
C26 a_2406_101.n7 GND 0.02fF
C27 a_2406_101.n8 GND 0.05fF
C28 a_2406_101.n9 GND 0.02fF
C29 a_2406_101.n10 GND 0.08fF
C30 a_2406_101.n11 GND 0.17fF
C31 a_2406_101.t1 GND 0.23fF
C32 a_2406_101.n12 GND 0.09fF
C33 a_2406_101.n13 GND 0.00fF
C34 a_372_210.n0 GND 0.02fF
C35 a_372_210.n1 GND 0.09fF
C36 a_372_210.n2 GND 0.13fF
C37 a_372_210.n3 GND 0.11fF
C38 a_372_210.t1 GND 0.30fF
C39 a_372_210.n4 GND 0.09fF
C40 a_372_210.n5 GND 0.06fF
C41 a_372_210.n6 GND 0.01fF
C42 a_372_210.n7 GND 0.03fF
C43 a_372_210.n8 GND 0.11fF
C44 a_372_210.n9 GND 0.02fF
C45 a_372_210.n10 GND 0.05fF
C46 a_372_210.n11 GND 0.02fF
C47 QN.n0 GND 0.36fF
C48 QN.n1 GND 0.37fF
C49 QN.n2 GND 0.50fF
C50 QN.n3 GND 0.59fF
C51 QN.n4 GND 0.29fF
C52 QN.n5 GND 0.04fF
C53 QN.n6 GND 0.05fF
C54 QN.n7 GND 0.03fF
C55 QN.n8 GND 0.28fF
C56 QN.n9 GND 0.41fF
C57 QN.n10 GND 0.03fF
C58 a_277_1050.n0 GND 0.69fF
C59 a_277_1050.n1 GND 0.69fF
C60 a_277_1050.n2 GND 0.44fF
C61 a_277_1050.n3 GND 0.61fF
C62 a_277_1050.n4 GND 0.44fF
C63 a_277_1050.n5 GND 0.51fF
C64 a_277_1050.n6 GND 2.48fF
C65 a_277_1050.n7 GND 0.05fF
C66 a_277_1050.n8 GND 0.07fF
C67 a_277_1050.n9 GND 0.04fF
C68 a_277_1050.n10 GND 0.43fF
C69 a_277_1050.n11 GND 0.58fF
C70 a_277_1050.n12 GND 0.36fF
C71 a_277_1050.n13 GND 0.26fF
C72 a_277_1050.n14 GND 0.81fF
C73 a_1074_101.n0 GND 0.05fF
C74 a_1074_101.n1 GND 0.12fF
C75 a_1074_101.n2 GND 0.04fF
C76 a_1845_1050.n0 GND 0.37fF
C77 a_1845_1050.n1 GND 0.56fF
C78 a_1845_1050.n2 GND 0.04fF
C79 a_1845_1050.n3 GND 0.05fF
C80 a_1845_1050.n4 GND 0.03fF
C81 a_1845_1050.n5 GND 0.29fF
C82 a_1845_1050.n6 GND 0.60fF
C83 a_1845_1050.n7 GND 0.62fF
C84 a_1845_1050.n8 GND 0.30fF
C85 a_1845_1050.n9 GND 0.52fF
C86 Q.n0 GND 0.56fF
C87 Q.n1 GND 0.66fF
C88 Q.n2 GND 0.29fF
C89 Q.n3 GND 0.45fF
C90 Q.n4 GND 0.48fF
C91 Q.n5 GND 0.32fF
C92 Q.n6 GND 0.41fF
C93 Q.n7 GND 0.03fF
C94 a_3738_101.n0 GND 0.07fF
C95 a_3738_101.n1 GND 0.02fF
C96 a_3738_101.n2 GND 0.01fF
C97 a_3738_101.n3 GND 0.06fF
C98 a_3738_101.n4 GND 0.10fF
C99 a_3738_101.n5 GND 0.06fF
C100 a_3738_101.n6 GND 0.05fF
C101 a_147_187.n0 GND 0.05fF
C102 a_147_187.n1 GND 0.72fF
C103 a_147_187.n2 GND 0.85fF
C104 a_147_187.n3 GND 0.33fF
C105 a_147_187.n4 GND 0.38fF