* SPICE3 file created from FA.ext - technology: sky130A

.subckt FA SUM COUT A B CIN VPB VNB
M1000 VPB.t9 CIN a_3461_1004.t3 pshort w=2u l=0.15u
+  ad=0p pd=0u as=0p ps=0u
M1001 VPB.t7 CIN a_3027_943.t1 pshort w=2u l=0.15u
+  ad=0p pd=0u as=0p ps=0u
M1002 a_575_1004.t3 a_807_943.t3 a_836_182.t2 pshort w=2u l=0.15u
+  ad=0p pd=0u as=0p ps=0u
M1003 a_2795_1004.t3 a_836_182.t6 VPB.t31 pshort w=2u l=0.15u
+  ad=0p pd=0u as=0p ps=0u
M1004 a_6791_1005.t2 a_5291_182.t3 VPB.t29 pshort w=2u l=0.15u
+  ad=0p pd=0u as=0p ps=0u
M1005 VNB A a_556_74.t0 nshort w=-1.605u l=1.765u
+  ad=10.9968p pd=79.06u as=0p ps=0u
M1006 a_1241_1004.t3 B VPB.t23 pshort w=2u l=0.15u
+  ad=0p pd=0u as=0p ps=0u
M1007 a_836_182.t3 a_807_943.t4 a_575_1004.t2 pshort w=2u l=0.15u
+  ad=0p pd=0u as=0p ps=0u
M1008 a_1241_1004.t0 a_185_182.t4 a_836_182.t0 pshort w=2u l=0.15u
+  ad=0p pd=0u as=0p ps=0u
M1009 VPB.t3 a_5767_1004.t6 a_6401_182.t2 pshort w=2u l=0.15u
+  ad=0p pd=0u as=0p ps=0u
M1010 a_2405_182.t2 a_836_182.t7 VPB.t1 pshort w=2u l=0.15u
+  ad=0p pd=0u as=0p ps=0u
M1011 VPB.t25 B a_807_943.t2 pshort w=2u l=0.15u
+  ad=0p pd=0u as=0p ps=0u
M1012 a_7511_182.t2 a_6858_181.t5 VPB.t27 pshort w=2u l=0.15u
+  ad=0p pd=0u as=0p ps=0u
M1013 VNB a_3027_943.t3 a_3442_74.t0 nshort w=-1.605u l=1.765u
+  ad=0p pd=0u as=0p ps=0u
M1014 VPB.t21 B a_5767_1004.t4 pshort w=2u l=0.15u
+  ad=0p pd=0u as=0p ps=0u
M1015 VPB.t15 A a_575_1004.t1 pshort w=2u l=0.15u
+  ad=0p pd=0u as=0p ps=0u
M1016 VPB.t2 a_836_182.t8 a_4657_1004.t3 pshort w=2u l=0.15u
+  ad=0p pd=0u as=0p ps=0u
M1017 a_807_943.t1 B VPB.t22 pshort w=2u l=0.15u
+  ad=0p pd=0u as=0p ps=0u
M1018 a_4657_1004.t1 CIN VPB.t11 pshort w=2u l=0.15u
+  ad=0p pd=0u as=0p ps=0u
M1019 VNB CIN a_4552_73.t0 nshort w=-1.605u l=1.765u
+  ad=0p pd=0u as=0p ps=0u
M1020 SUM a_2405_182.t3 a_3461_1004.t0 pshort w=2u l=0.15u
+  ad=1.16p pd=9.16u as=0p ps=0u
M1021 a_3027_943.t0 CIN VPB.t10 pshort w=2u l=0.15u
+  ad=0p pd=0u as=0p ps=0u
M1022 VPB.t28 a_5291_182.t4 a_6791_1005.t1 pshort w=2u l=0.15u
+  ad=0p pd=0u as=0p ps=0u
M1023 VPB.t19 A a_185_182.t2 pshort w=2u l=0.15u
+  ad=0p pd=0u as=0p ps=0u
M1024 a_2795_1004.t1 a_3027_943.t4 SUM pshort w=2u l=0.15u
+  ad=0p pd=0u as=0p ps=0u
M1025 a_4657_1004.t2 a_836_182.t9 VPB.t0 pshort w=2u l=0.15u
+  ad=0p pd=0u as=0p ps=0u
M1026 a_6791_1005.t0 a_6401_182.t3 a_6858_181.t2 pshort w=2u l=0.15u
+  ad=0p pd=0u as=0p ps=0u
M1027 VPB.t24 B a_1241_1004.t2 pshort w=2u l=0.15u
+  ad=0p pd=0u as=0p ps=0u
M1028 a_5291_182.t2 a_4657_1004.t5 VPB.t12 pshort w=2u l=0.15u
+  ad=0p pd=0u as=0p ps=0u
M1029 a_3461_1004.t2 CIN VPB.t8 pshort w=2u l=0.15u
+  ad=0p pd=0u as=0p ps=0u
M1030 VPB.t26 a_6858_181.t6 a_7511_182.t1 pshort w=2u l=0.15u
+  ad=0p pd=0u as=0p ps=0u
M1031 VNB B a_5662_73.t0 nshort w=-1.605u l=1.765u
+  ad=0p pd=0u as=0p ps=0u
M1032 SUM a_2405_182.t4 a_3442_74.t1 nshort w=-1.605u l=1.765u
+  ad=0.3582p pd=3.14u as=0p ps=0u
M1033 a_575_1004.t0 A VPB.t14 pshort w=2u l=0.15u
+  ad=0p pd=0u as=0p ps=0u
M1034 a_836_182.t1 a_185_182.t5 a_1241_1004.t1 pshort w=2u l=0.15u
+  ad=0p pd=0u as=0p ps=0u
M1035 VPB.t13 a_836_182.t12 a_2795_1004.t2 pshort w=2u l=0.15u
+  ad=0p pd=0u as=0p ps=0u
M1036 a_5767_1004.t3 B VPB.t20 pshort w=2u l=0.15u
+  ad=0p pd=0u as=0p ps=0u
M1037 VPB.t17 A a_5767_1004.t2 pshort w=2u l=0.15u
+  ad=0p pd=0u as=0p ps=0u
M1038 VNB a_836_182.t11 a_2776_74.t0 nshort w=-1.605u l=1.765u
+  ad=0p pd=0u as=0p ps=0u
M1039 VPB.t30 a_836_182.t14 a_2405_182.t1 pshort w=2u l=0.15u
+  ad=0p pd=0u as=0p ps=0u
M1040 VPB.t5 a_4657_1004.t7 a_5291_182.t0 pshort w=2u l=0.15u
+  ad=0p pd=0u as=0p ps=0u
M1041 a_5767_1004.t1 A VPB.t16 pshort w=2u l=0.15u
+  ad=0p pd=0u as=0p ps=0u
M1042 VNB a_807_943.t5 a_1222_74.t0 nshort w=-1.605u l=1.765u
+  ad=0p pd=0u as=0p ps=0u
M1043 a_185_182.t1 A VPB.t18 pshort w=2u l=0.15u
+  ad=0p pd=0u as=0p ps=0u
M1044 SUM CIN a_2776_74.t0 nshort w=-1.605u l=1.765u
+  ad=0p pd=0u as=0p ps=0u
M1045 SUM a_3027_943.t5 a_2795_1004.t0 pshort w=2u l=0.15u
+  ad=0p pd=0u as=0p ps=0u
M1046 VPB.t6 CIN a_4657_1004.t0 pshort w=2u l=0.15u
+  ad=0p pd=0u as=0p ps=0u
M1047 a_6401_182.t1 a_5767_1004.t7 VPB.t4 pshort w=2u l=0.15u
+  ad=0p pd=0u as=0p ps=0u
M1048 a_6858_181.t1 a_6401_182.t5 a_6791_1005.t3 pshort w=2u l=0.15u
+  ad=0p pd=0u as=0p ps=0u
M1049 a_3461_1004.t1 a_2405_182.t5 SUM pshort w=2u l=0.15u
+  ad=0p pd=0u as=0p ps=0u
C0 VPB SUM 0.53fF
C1 VPB CIN 0.58fF
C2 A B 0.77fF
C3 VPB A 0.42fF
C4 VPB B 0.93fF
C5 SUM CIN 0.81fF
C6 SUM A 0.17fF
C7 A CIN 0.44fF
C8 SUM B 0.24fF
C9 B CIN 1.74fF
R0 a_3461_1004.n0 a_3461_1004.t1 101.66
R1 a_3461_1004.n0 a_3461_1004.t3 101.66
R2 a_3461_1004.t0 a_3461_1004.n0 14.294
R3 a_3461_1004.n0 a_3461_1004.t2 14.282
R4 VPB VPB.n765 126.832
R5 VPB.n60 VPB.n58 94.117
R6 VPB.n740 VPB.n738 94.117
R7 VPB.n681 VPB.n679 94.117
R8 VPB.n634 VPB.n632 94.117
R9 VPB.n587 VPB.n585 94.117
R10 VPB.n528 VPB.n526 94.117
R11 VPB.n470 VPB.n468 94.117
R12 VPB.n137 VPB.n135 94.117
R13 VPB.n440 VPB.n438 94.117
R14 VPB.n393 VPB.n391 94.117
R15 VPB.n330 VPB.n328 94.117
R16 VPB.n283 VPB.n281 94.117
R17 VPB.n224 VPB.n222 94.117
R18 VPB.n185 VPB.n179 76.136
R19 VPB.n185 VPB.n184 76
R20 VPB.n189 VPB.n188 76
R21 VPB.n195 VPB.n194 76
R22 VPB.n199 VPB.n198 76
R23 VPB.n226 VPB.n225 76
R24 VPB.n230 VPB.n229 76
R25 VPB.n234 VPB.n233 76
R26 VPB.n238 VPB.n237 76
R27 VPB.n243 VPB.n242 76
R28 VPB.n250 VPB.n249 76
R29 VPB.n254 VPB.n253 76
R30 VPB.n258 VPB.n257 76
R31 VPB.n285 VPB.n284 76
R32 VPB.n291 VPB.n290 76
R33 VPB.n295 VPB.n294 76
R34 VPB.n301 VPB.n300 76
R35 VPB.n305 VPB.n304 76
R36 VPB.n332 VPB.n331 76
R37 VPB.n337 VPB.n336 76
R38 VPB.n342 VPB.n341 76
R39 VPB.n349 VPB.n348 76
R40 VPB.n354 VPB.n353 76
R41 VPB.n359 VPB.n358 76
R42 VPB.n364 VPB.n363 76
R43 VPB.n368 VPB.n367 76
R44 VPB.n395 VPB.n394 76
R45 VPB.n401 VPB.n400 76
R46 VPB.n405 VPB.n404 76
R47 VPB.n411 VPB.n410 76
R48 VPB.n415 VPB.n414 76
R49 VPB.n442 VPB.n441 76
R50 VPB.n447 VPB.n446 76
R51 VPB.n452 VPB.n451 76
R52 VPB.n457 VPB.n456 76
R53 VPB.n471 VPB.n467 76
R54 VPB.n475 VPB.n474 76
R55 VPB.n479 VPB.n478 76
R56 VPB.n483 VPB.n482 76
R57 VPB.n488 VPB.n487 76
R58 VPB.n495 VPB.n494 76
R59 VPB.n499 VPB.n498 76
R60 VPB.n503 VPB.n502 76
R61 VPB.n530 VPB.n529 76
R62 VPB.n534 VPB.n533 76
R63 VPB.n538 VPB.n537 76
R64 VPB.n542 VPB.n541 76
R65 VPB.n547 VPB.n546 76
R66 VPB.n554 VPB.n553 76
R67 VPB.n558 VPB.n557 76
R68 VPB.n562 VPB.n561 76
R69 VPB.n589 VPB.n588 76
R70 VPB.n595 VPB.n594 76
R71 VPB.n599 VPB.n598 76
R72 VPB.n605 VPB.n604 76
R73 VPB.n609 VPB.n608 76
R74 VPB.n636 VPB.n635 76
R75 VPB.n642 VPB.n641 76
R76 VPB.n646 VPB.n645 76
R77 VPB.n652 VPB.n651 76
R78 VPB.n656 VPB.n655 76
R79 VPB.n683 VPB.n682 76
R80 VPB.n687 VPB.n686 76
R81 VPB.n691 VPB.n690 76
R82 VPB.n695 VPB.n694 76
R83 VPB.n700 VPB.n699 76
R84 VPB.n707 VPB.n706 76
R85 VPB.n711 VPB.n710 76
R86 VPB.n715 VPB.n714 76
R87 VPB.n742 VPB.n741 76
R88 VPB.n746 VPB.n745 76
R89 VPB.n758 VPB.n757 76
R90 VPB.n192 VPB.n191 68.979
R91 VPB.n298 VPB.n297 68.979
R92 VPB.n408 VPB.n407 68.979
R93 VPB.n141 VPB.n140 68.979
R94 VPB.n602 VPB.n601 68.979
R95 VPB.n639 VPB.n638 68.979
R96 VPB.n71 VPB.n70 68.979
R97 VPB.n46 VPB.n35 65.944
R98 VPB.n702 VPB.n701 65.944
R99 VPB.n549 VPB.n548 65.944
R100 VPB.n490 VPB.n489 65.944
R101 VPB.n182 VPB.n181 64.528
R102 VPB.n288 VPB.n287 64.528
R103 VPB.n398 VPB.n397 64.528
R104 VPB.n148 VPB.n147 64.528
R105 VPB.n592 VPB.n591 64.528
R106 VPB.n649 VPB.n648 64.528
R107 VPB.n64 VPB.n63 64.528
R108 VPB.n20 VPB.n19 61.764
R109 VPB.n722 VPB.n721 61.764
R110 VPB.n663 VPB.n662 61.764
R111 VPB.n616 VPB.n615 61.764
R112 VPB.n569 VPB.n568 61.764
R113 VPB.n510 VPB.n509 61.764
R114 VPB.n81 VPB.n80 61.764
R115 VPB.n102 VPB.n101 61.764
R116 VPB.n422 VPB.n421 61.764
R117 VPB.n375 VPB.n374 61.764
R118 VPB.n312 VPB.n311 61.764
R119 VPB.n265 VPB.n264 61.764
R120 VPB.n206 VPB.n205 61.764
R121 VPB.n74 VPB.t18 55.106
R122 VPB.n62 VPB.t19 55.106
R123 VPB.n647 VPB.t22 55.106
R124 VPB.n637 VPB.t25 55.106
R125 VPB.n600 VPB.t1 55.106
R126 VPB.n590 VPB.t30 55.106
R127 VPB.n151 VPB.t10 55.106
R128 VPB.n139 VPB.t7 55.106
R129 VPB.n127 VPB.t11 55.106
R130 VPB.n406 VPB.t12 55.106
R131 VPB.n396 VPB.t5 55.106
R132 VPB.n360 VPB.t20 55.106
R133 VPB.n296 VPB.t4 55.106
R134 VPB.n286 VPB.t3 55.106
R135 VPB.n190 VPB.t27 55.106
R136 VPB.n180 VPB.t26 55.106
R137 VPB.n443 VPB.t2 55.106
R138 VPB.n333 VPB.t17 55.106
R139 VPB.n339 VPB.n338 48.952
R140 VPB.n449 VPB.n448 48.952
R141 VPB.n247 VPB.n246 44.502
R142 VPB.n356 VPB.n355 44.502
R143 VPB.n124 VPB.n123 44.502
R144 VPB.n492 VPB.n491 44.502
R145 VPB.n551 VPB.n550 44.502
R146 VPB.n704 VPB.n703 44.502
R147 VPB.n48 VPB.n47 44.502
R148 VPB.n245 VPB.n244 41.183
R149 VPB.n118 VPB.n117 40.824
R150 VPB.n344 VPB.n343 40.824
R151 VPB.n762 VPB.n758 20.452
R152 VPB.n179 VPB.n176 20.452
R153 VPB.n346 VPB.n345 17.801
R154 VPB.n454 VPB.n453 17.801
R155 VPB.n35 VPB.t14 14.282
R156 VPB.n35 VPB.t15 14.282
R157 VPB.n701 VPB.t23 14.282
R158 VPB.n701 VPB.t24 14.282
R159 VPB.n548 VPB.t31 14.282
R160 VPB.n548 VPB.t13 14.282
R161 VPB.n489 VPB.t8 14.282
R162 VPB.n489 VPB.t9 14.282
R163 VPB.n117 VPB.t0 14.282
R164 VPB.n117 VPB.t6 14.282
R165 VPB.n343 VPB.t16 14.282
R166 VPB.n343 VPB.t21 14.282
R167 VPB.n244 VPB.t29 14.282
R168 VPB.n244 VPB.t28 14.282
R169 VPB.n179 VPB.n178 13.653
R170 VPB.n178 VPB.n177 13.653
R171 VPB.n184 VPB.n183 13.653
R172 VPB.n183 VPB.n182 13.653
R173 VPB.n188 VPB.n187 13.653
R174 VPB.n187 VPB.n186 13.653
R175 VPB.n194 VPB.n193 13.653
R176 VPB.n193 VPB.n192 13.653
R177 VPB.n198 VPB.n197 13.653
R178 VPB.n197 VPB.n196 13.653
R179 VPB.n225 VPB.n224 13.653
R180 VPB.n224 VPB.n223 13.653
R181 VPB.n229 VPB.n228 13.653
R182 VPB.n228 VPB.n227 13.653
R183 VPB.n233 VPB.n232 13.653
R184 VPB.n232 VPB.n231 13.653
R185 VPB.n237 VPB.n236 13.653
R186 VPB.n236 VPB.n235 13.653
R187 VPB.n242 VPB.n241 13.653
R188 VPB.n241 VPB.n240 13.653
R189 VPB.n249 VPB.n248 13.653
R190 VPB.n248 VPB.n247 13.653
R191 VPB.n253 VPB.n252 13.653
R192 VPB.n252 VPB.n251 13.653
R193 VPB.n257 VPB.n256 13.653
R194 VPB.n256 VPB.n255 13.653
R195 VPB.n284 VPB.n283 13.653
R196 VPB.n283 VPB.n282 13.653
R197 VPB.n290 VPB.n289 13.653
R198 VPB.n289 VPB.n288 13.653
R199 VPB.n294 VPB.n293 13.653
R200 VPB.n293 VPB.n292 13.653
R201 VPB.n300 VPB.n299 13.653
R202 VPB.n299 VPB.n298 13.653
R203 VPB.n304 VPB.n303 13.653
R204 VPB.n303 VPB.n302 13.653
R205 VPB.n331 VPB.n330 13.653
R206 VPB.n330 VPB.n329 13.653
R207 VPB.n336 VPB.n335 13.653
R208 VPB.n335 VPB.n334 13.653
R209 VPB.n341 VPB.n340 13.653
R210 VPB.n340 VPB.n339 13.653
R211 VPB.n348 VPB.n347 13.653
R212 VPB.n347 VPB.n346 13.653
R213 VPB.n353 VPB.n352 13.653
R214 VPB.n352 VPB.n351 13.653
R215 VPB.n358 VPB.n357 13.653
R216 VPB.n357 VPB.n356 13.653
R217 VPB.n363 VPB.n362 13.653
R218 VPB.n362 VPB.n361 13.653
R219 VPB.n367 VPB.n366 13.653
R220 VPB.n366 VPB.n365 13.653
R221 VPB.n394 VPB.n393 13.653
R222 VPB.n393 VPB.n392 13.653
R223 VPB.n400 VPB.n399 13.653
R224 VPB.n399 VPB.n398 13.653
R225 VPB.n404 VPB.n403 13.653
R226 VPB.n403 VPB.n402 13.653
R227 VPB.n410 VPB.n409 13.653
R228 VPB.n409 VPB.n408 13.653
R229 VPB.n414 VPB.n413 13.653
R230 VPB.n413 VPB.n412 13.653
R231 VPB.n441 VPB.n440 13.653
R232 VPB.n440 VPB.n439 13.653
R233 VPB.n446 VPB.n445 13.653
R234 VPB.n445 VPB.n444 13.653
R235 VPB.n451 VPB.n450 13.653
R236 VPB.n450 VPB.n449 13.653
R237 VPB.n456 VPB.n455 13.653
R238 VPB.n455 VPB.n454 13.653
R239 VPB.n122 VPB.n121 13.653
R240 VPB.n121 VPB.n120 13.653
R241 VPB.n126 VPB.n125 13.653
R242 VPB.n125 VPB.n124 13.653
R243 VPB.n130 VPB.n129 13.653
R244 VPB.n129 VPB.n128 13.653
R245 VPB.n133 VPB.n132 13.653
R246 VPB.n132 VPB.n131 13.653
R247 VPB.n138 VPB.n137 13.653
R248 VPB.n137 VPB.n136 13.653
R249 VPB.n143 VPB.n142 13.653
R250 VPB.n142 VPB.n141 13.653
R251 VPB.n146 VPB.n145 13.653
R252 VPB.n145 VPB.n144 13.653
R253 VPB.n150 VPB.n149 13.653
R254 VPB.n149 VPB.n148 13.653
R255 VPB.n154 VPB.n153 13.653
R256 VPB.n153 VPB.n152 13.653
R257 VPB.n471 VPB.n470 13.653
R258 VPB.n470 VPB.n469 13.653
R259 VPB.n474 VPB.n473 13.653
R260 VPB.n473 VPB.n472 13.653
R261 VPB.n478 VPB.n477 13.653
R262 VPB.n477 VPB.n476 13.653
R263 VPB.n482 VPB.n481 13.653
R264 VPB.n481 VPB.n480 13.653
R265 VPB.n487 VPB.n486 13.653
R266 VPB.n486 VPB.n485 13.653
R267 VPB.n494 VPB.n493 13.653
R268 VPB.n493 VPB.n492 13.653
R269 VPB.n498 VPB.n497 13.653
R270 VPB.n497 VPB.n496 13.653
R271 VPB.n502 VPB.n501 13.653
R272 VPB.n501 VPB.n500 13.653
R273 VPB.n529 VPB.n528 13.653
R274 VPB.n528 VPB.n527 13.653
R275 VPB.n533 VPB.n532 13.653
R276 VPB.n532 VPB.n531 13.653
R277 VPB.n537 VPB.n536 13.653
R278 VPB.n536 VPB.n535 13.653
R279 VPB.n541 VPB.n540 13.653
R280 VPB.n540 VPB.n539 13.653
R281 VPB.n546 VPB.n545 13.653
R282 VPB.n545 VPB.n544 13.653
R283 VPB.n553 VPB.n552 13.653
R284 VPB.n552 VPB.n551 13.653
R285 VPB.n557 VPB.n556 13.653
R286 VPB.n556 VPB.n555 13.653
R287 VPB.n561 VPB.n560 13.653
R288 VPB.n560 VPB.n559 13.653
R289 VPB.n588 VPB.n587 13.653
R290 VPB.n587 VPB.n586 13.653
R291 VPB.n594 VPB.n593 13.653
R292 VPB.n593 VPB.n592 13.653
R293 VPB.n598 VPB.n597 13.653
R294 VPB.n597 VPB.n596 13.653
R295 VPB.n604 VPB.n603 13.653
R296 VPB.n603 VPB.n602 13.653
R297 VPB.n608 VPB.n607 13.653
R298 VPB.n607 VPB.n606 13.653
R299 VPB.n635 VPB.n634 13.653
R300 VPB.n634 VPB.n633 13.653
R301 VPB.n641 VPB.n640 13.653
R302 VPB.n640 VPB.n639 13.653
R303 VPB.n645 VPB.n644 13.653
R304 VPB.n644 VPB.n643 13.653
R305 VPB.n651 VPB.n650 13.653
R306 VPB.n650 VPB.n649 13.653
R307 VPB.n655 VPB.n654 13.653
R308 VPB.n654 VPB.n653 13.653
R309 VPB.n682 VPB.n681 13.653
R310 VPB.n681 VPB.n680 13.653
R311 VPB.n686 VPB.n685 13.653
R312 VPB.n685 VPB.n684 13.653
R313 VPB.n690 VPB.n689 13.653
R314 VPB.n689 VPB.n688 13.653
R315 VPB.n694 VPB.n693 13.653
R316 VPB.n693 VPB.n692 13.653
R317 VPB.n699 VPB.n698 13.653
R318 VPB.n698 VPB.n697 13.653
R319 VPB.n706 VPB.n705 13.653
R320 VPB.n705 VPB.n704 13.653
R321 VPB.n710 VPB.n709 13.653
R322 VPB.n709 VPB.n708 13.653
R323 VPB.n714 VPB.n713 13.653
R324 VPB.n713 VPB.n712 13.653
R325 VPB.n741 VPB.n740 13.653
R326 VPB.n740 VPB.n739 13.653
R327 VPB.n745 VPB.n744 13.653
R328 VPB.n744 VPB.n743 13.653
R329 VPB.n38 VPB.n37 13.653
R330 VPB.n37 VPB.n36 13.653
R331 VPB.n41 VPB.n40 13.653
R332 VPB.n40 VPB.n39 13.653
R333 VPB.n45 VPB.n44 13.653
R334 VPB.n44 VPB.n43 13.653
R335 VPB.n50 VPB.n49 13.653
R336 VPB.n49 VPB.n48 13.653
R337 VPB.n53 VPB.n52 13.653
R338 VPB.n52 VPB.n51 13.653
R339 VPB.n56 VPB.n55 13.653
R340 VPB.n55 VPB.n54 13.653
R341 VPB.n61 VPB.n60 13.653
R342 VPB.n60 VPB.n59 13.653
R343 VPB.n66 VPB.n65 13.653
R344 VPB.n65 VPB.n64 13.653
R345 VPB.n69 VPB.n68 13.653
R346 VPB.n68 VPB.n67 13.653
R347 VPB.n73 VPB.n72 13.653
R348 VPB.n72 VPB.n71 13.653
R349 VPB.n758 VPB.n0 13.653
R350 VPB VPB.n0 13.653
R351 VPB.n240 VPB.n239 13.35
R352 VPB.n351 VPB.n350 13.35
R353 VPB.n120 VPB.n119 13.35
R354 VPB.n485 VPB.n484 13.35
R355 VPB.n544 VPB.n543 13.35
R356 VPB.n697 VPB.n696 13.35
R357 VPB.n43 VPB.n42 13.35
R358 VPB.n762 VPB.n761 13.276
R359 VPB.n761 VPB.n759 13.276
R360 VPB.n34 VPB.n16 13.276
R361 VPB.n16 VPB.n14 13.276
R362 VPB.n736 VPB.n718 13.276
R363 VPB.n718 VPB.n716 13.276
R364 VPB.n677 VPB.n659 13.276
R365 VPB.n659 VPB.n657 13.276
R366 VPB.n630 VPB.n612 13.276
R367 VPB.n612 VPB.n610 13.276
R368 VPB.n583 VPB.n565 13.276
R369 VPB.n565 VPB.n563 13.276
R370 VPB.n524 VPB.n506 13.276
R371 VPB.n506 VPB.n504 13.276
R372 VPB.n95 VPB.n77 13.276
R373 VPB.n77 VPB.n75 13.276
R374 VPB.n116 VPB.n98 13.276
R375 VPB.n98 VPB.n96 13.276
R376 VPB.n436 VPB.n418 13.276
R377 VPB.n418 VPB.n416 13.276
R378 VPB.n389 VPB.n371 13.276
R379 VPB.n371 VPB.n369 13.276
R380 VPB.n326 VPB.n308 13.276
R381 VPB.n308 VPB.n306 13.276
R382 VPB.n279 VPB.n261 13.276
R383 VPB.n261 VPB.n259 13.276
R384 VPB.n220 VPB.n202 13.276
R385 VPB.n202 VPB.n200 13.276
R386 VPB.n225 VPB.n221 13.276
R387 VPB.n284 VPB.n280 13.276
R388 VPB.n331 VPB.n327 13.276
R389 VPB.n394 VPB.n390 13.276
R390 VPB.n441 VPB.n437 13.276
R391 VPB.n126 VPB.n122 13.276
R392 VPB.n133 VPB.n130 13.276
R393 VPB.n134 VPB.n133 13.276
R394 VPB.n138 VPB.n134 13.276
R395 VPB.n146 VPB.n143 13.276
R396 VPB.n150 VPB.n146 13.276
R397 VPB.n155 VPB.n154 13.276
R398 VPB.n471 VPB.n155 13.276
R399 VPB.n474 VPB.n471 13.276
R400 VPB.n529 VPB.n525 13.276
R401 VPB.n588 VPB.n584 13.276
R402 VPB.n635 VPB.n631 13.276
R403 VPB.n682 VPB.n678 13.276
R404 VPB.n741 VPB.n737 13.276
R405 VPB.n41 VPB.n38 13.276
R406 VPB.n45 VPB.n41 13.276
R407 VPB.n53 VPB.n50 13.276
R408 VPB.n56 VPB.n53 13.276
R409 VPB.n57 VPB.n56 13.276
R410 VPB.n61 VPB.n57 13.276
R411 VPB.n69 VPB.n66 13.276
R412 VPB.n73 VPB.n69 13.276
R413 VPB.n176 VPB.n158 13.276
R414 VPB.n158 VPB.n156 13.276
R415 VPB.n163 VPB.n161 12.796
R416 VPB.n163 VPB.n162 12.564
R417 VPB.n172 VPB.n171 12.198
R418 VPB.n170 VPB.n169 12.198
R419 VPB.n166 VPB.n165 12.198
R420 VPB.n127 VPB.n126 11.482
R421 VPB.n139 VPB.n138 10.944
R422 VPB.n758 VPB.n74 10.944
R423 VPB.n154 VPB.n151 10.585
R424 VPB.n62 VPB.n61 10.585
R425 VPB.n46 VPB.n45 8.97
R426 VPB.n176 VPB.n175 7.5
R427 VPB.n161 VPB.n160 7.5
R428 VPB.n165 VPB.n164 7.5
R429 VPB.n169 VPB.n168 7.5
R430 VPB.n158 VPB.n157 7.5
R431 VPB.n173 VPB.n159 7.5
R432 VPB.n202 VPB.n201 7.5
R433 VPB.n215 VPB.n214 7.5
R434 VPB.n209 VPB.n208 7.5
R435 VPB.n211 VPB.n210 7.5
R436 VPB.n204 VPB.n203 7.5
R437 VPB.n220 VPB.n219 7.5
R438 VPB.n261 VPB.n260 7.5
R439 VPB.n274 VPB.n273 7.5
R440 VPB.n268 VPB.n267 7.5
R441 VPB.n270 VPB.n269 7.5
R442 VPB.n263 VPB.n262 7.5
R443 VPB.n279 VPB.n278 7.5
R444 VPB.n308 VPB.n307 7.5
R445 VPB.n321 VPB.n320 7.5
R446 VPB.n315 VPB.n314 7.5
R447 VPB.n317 VPB.n316 7.5
R448 VPB.n310 VPB.n309 7.5
R449 VPB.n326 VPB.n325 7.5
R450 VPB.n371 VPB.n370 7.5
R451 VPB.n384 VPB.n383 7.5
R452 VPB.n378 VPB.n377 7.5
R453 VPB.n380 VPB.n379 7.5
R454 VPB.n373 VPB.n372 7.5
R455 VPB.n389 VPB.n388 7.5
R456 VPB.n418 VPB.n417 7.5
R457 VPB.n431 VPB.n430 7.5
R458 VPB.n425 VPB.n424 7.5
R459 VPB.n427 VPB.n426 7.5
R460 VPB.n420 VPB.n419 7.5
R461 VPB.n436 VPB.n435 7.5
R462 VPB.n98 VPB.n97 7.5
R463 VPB.n111 VPB.n110 7.5
R464 VPB.n105 VPB.n104 7.5
R465 VPB.n107 VPB.n106 7.5
R466 VPB.n100 VPB.n99 7.5
R467 VPB.n116 VPB.n115 7.5
R468 VPB.n77 VPB.n76 7.5
R469 VPB.n90 VPB.n89 7.5
R470 VPB.n84 VPB.n83 7.5
R471 VPB.n86 VPB.n85 7.5
R472 VPB.n79 VPB.n78 7.5
R473 VPB.n95 VPB.n94 7.5
R474 VPB.n506 VPB.n505 7.5
R475 VPB.n519 VPB.n518 7.5
R476 VPB.n513 VPB.n512 7.5
R477 VPB.n515 VPB.n514 7.5
R478 VPB.n508 VPB.n507 7.5
R479 VPB.n524 VPB.n523 7.5
R480 VPB.n565 VPB.n564 7.5
R481 VPB.n578 VPB.n577 7.5
R482 VPB.n572 VPB.n571 7.5
R483 VPB.n574 VPB.n573 7.5
R484 VPB.n567 VPB.n566 7.5
R485 VPB.n583 VPB.n582 7.5
R486 VPB.n612 VPB.n611 7.5
R487 VPB.n625 VPB.n624 7.5
R488 VPB.n619 VPB.n618 7.5
R489 VPB.n621 VPB.n620 7.5
R490 VPB.n614 VPB.n613 7.5
R491 VPB.n630 VPB.n629 7.5
R492 VPB.n659 VPB.n658 7.5
R493 VPB.n672 VPB.n671 7.5
R494 VPB.n666 VPB.n665 7.5
R495 VPB.n668 VPB.n667 7.5
R496 VPB.n661 VPB.n660 7.5
R497 VPB.n677 VPB.n676 7.5
R498 VPB.n718 VPB.n717 7.5
R499 VPB.n731 VPB.n730 7.5
R500 VPB.n725 VPB.n724 7.5
R501 VPB.n727 VPB.n726 7.5
R502 VPB.n720 VPB.n719 7.5
R503 VPB.n736 VPB.n735 7.5
R504 VPB.n16 VPB.n15 7.5
R505 VPB.n29 VPB.n28 7.5
R506 VPB.n23 VPB.n22 7.5
R507 VPB.n25 VPB.n24 7.5
R508 VPB.n18 VPB.n17 7.5
R509 VPB.n34 VPB.n33 7.5
R510 VPB.n761 VPB.n760 7.5
R511 VPB.n12 VPB.n11 7.5
R512 VPB.n6 VPB.n5 7.5
R513 VPB.n8 VPB.n7 7.5
R514 VPB.n2 VPB.n1 7.5
R515 VPB.n763 VPB.n762 7.5
R516 VPB.n57 VPB.n34 7.176
R517 VPB.n737 VPB.n736 7.176
R518 VPB.n678 VPB.n677 7.176
R519 VPB.n631 VPB.n630 7.176
R520 VPB.n584 VPB.n583 7.176
R521 VPB.n525 VPB.n524 7.176
R522 VPB.n155 VPB.n95 7.176
R523 VPB.n134 VPB.n116 7.176
R524 VPB.n437 VPB.n436 7.176
R525 VPB.n390 VPB.n389 7.176
R526 VPB.n327 VPB.n326 7.176
R527 VPB.n280 VPB.n279 7.176
R528 VPB.n221 VPB.n220 7.176
R529 VPB.n122 VPB.n118 6.817
R530 VPB.n216 VPB.n213 6.729
R531 VPB.n212 VPB.n209 6.729
R532 VPB.n207 VPB.n204 6.729
R533 VPB.n275 VPB.n272 6.729
R534 VPB.n271 VPB.n268 6.729
R535 VPB.n266 VPB.n263 6.729
R536 VPB.n322 VPB.n319 6.729
R537 VPB.n318 VPB.n315 6.729
R538 VPB.n313 VPB.n310 6.729
R539 VPB.n385 VPB.n382 6.729
R540 VPB.n381 VPB.n378 6.729
R541 VPB.n376 VPB.n373 6.729
R542 VPB.n432 VPB.n429 6.729
R543 VPB.n428 VPB.n425 6.729
R544 VPB.n423 VPB.n420 6.729
R545 VPB.n112 VPB.n109 6.729
R546 VPB.n108 VPB.n105 6.729
R547 VPB.n103 VPB.n100 6.729
R548 VPB.n91 VPB.n88 6.729
R549 VPB.n87 VPB.n84 6.729
R550 VPB.n82 VPB.n79 6.729
R551 VPB.n520 VPB.n517 6.729
R552 VPB.n516 VPB.n513 6.729
R553 VPB.n511 VPB.n508 6.729
R554 VPB.n579 VPB.n576 6.729
R555 VPB.n575 VPB.n572 6.729
R556 VPB.n570 VPB.n567 6.729
R557 VPB.n626 VPB.n623 6.729
R558 VPB.n622 VPB.n619 6.729
R559 VPB.n617 VPB.n614 6.729
R560 VPB.n673 VPB.n670 6.729
R561 VPB.n669 VPB.n666 6.729
R562 VPB.n664 VPB.n661 6.729
R563 VPB.n732 VPB.n729 6.729
R564 VPB.n728 VPB.n725 6.729
R565 VPB.n723 VPB.n720 6.729
R566 VPB.n30 VPB.n27 6.729
R567 VPB.n26 VPB.n23 6.729
R568 VPB.n21 VPB.n18 6.729
R569 VPB.n13 VPB.n10 6.729
R570 VPB.n9 VPB.n6 6.729
R571 VPB.n4 VPB.n2 6.729
R572 VPB.n207 VPB.n206 6.728
R573 VPB.n212 VPB.n211 6.728
R574 VPB.n216 VPB.n215 6.728
R575 VPB.n219 VPB.n218 6.728
R576 VPB.n266 VPB.n265 6.728
R577 VPB.n271 VPB.n270 6.728
R578 VPB.n275 VPB.n274 6.728
R579 VPB.n278 VPB.n277 6.728
R580 VPB.n313 VPB.n312 6.728
R581 VPB.n318 VPB.n317 6.728
R582 VPB.n322 VPB.n321 6.728
R583 VPB.n325 VPB.n324 6.728
R584 VPB.n376 VPB.n375 6.728
R585 VPB.n381 VPB.n380 6.728
R586 VPB.n385 VPB.n384 6.728
R587 VPB.n388 VPB.n387 6.728
R588 VPB.n423 VPB.n422 6.728
R589 VPB.n428 VPB.n427 6.728
R590 VPB.n432 VPB.n431 6.728
R591 VPB.n435 VPB.n434 6.728
R592 VPB.n103 VPB.n102 6.728
R593 VPB.n108 VPB.n107 6.728
R594 VPB.n112 VPB.n111 6.728
R595 VPB.n115 VPB.n114 6.728
R596 VPB.n82 VPB.n81 6.728
R597 VPB.n87 VPB.n86 6.728
R598 VPB.n91 VPB.n90 6.728
R599 VPB.n94 VPB.n93 6.728
R600 VPB.n511 VPB.n510 6.728
R601 VPB.n516 VPB.n515 6.728
R602 VPB.n520 VPB.n519 6.728
R603 VPB.n523 VPB.n522 6.728
R604 VPB.n570 VPB.n569 6.728
R605 VPB.n575 VPB.n574 6.728
R606 VPB.n579 VPB.n578 6.728
R607 VPB.n582 VPB.n581 6.728
R608 VPB.n617 VPB.n616 6.728
R609 VPB.n622 VPB.n621 6.728
R610 VPB.n626 VPB.n625 6.728
R611 VPB.n629 VPB.n628 6.728
R612 VPB.n664 VPB.n663 6.728
R613 VPB.n669 VPB.n668 6.728
R614 VPB.n673 VPB.n672 6.728
R615 VPB.n676 VPB.n675 6.728
R616 VPB.n723 VPB.n722 6.728
R617 VPB.n728 VPB.n727 6.728
R618 VPB.n732 VPB.n731 6.728
R619 VPB.n735 VPB.n734 6.728
R620 VPB.n21 VPB.n20 6.728
R621 VPB.n26 VPB.n25 6.728
R622 VPB.n30 VPB.n29 6.728
R623 VPB.n33 VPB.n32 6.728
R624 VPB.n4 VPB.n3 6.728
R625 VPB.n9 VPB.n8 6.728
R626 VPB.n13 VPB.n12 6.728
R627 VPB.n764 VPB.n763 6.728
R628 VPB.n348 VPB.n344 6.458
R629 VPB.n175 VPB.n174 6.398
R630 VPB.n249 VPB.n245 4.305
R631 VPB.n494 VPB.n490 4.305
R632 VPB.n553 VPB.n549 4.305
R633 VPB.n706 VPB.n702 4.305
R634 VPB.n50 VPB.n46 4.305
R635 VPB.n184 VPB.n180 2.691
R636 VPB.n290 VPB.n286 2.691
R637 VPB.n400 VPB.n396 2.691
R638 VPB.n151 VPB.n150 2.691
R639 VPB.n594 VPB.n590 2.691
R640 VPB.n651 VPB.n647 2.691
R641 VPB.n66 VPB.n62 2.691
R642 VPB.n194 VPB.n190 2.332
R643 VPB.n300 VPB.n296 2.332
R644 VPB.n410 VPB.n406 2.332
R645 VPB.n143 VPB.n139 2.332
R646 VPB.n604 VPB.n600 2.332
R647 VPB.n641 VPB.n637 2.332
R648 VPB.n74 VPB.n73 2.332
R649 VPB.n363 VPB.n360 1.794
R650 VPB.n130 VPB.n127 1.794
R651 VPB.n336 VPB.n333 1.435
R652 VPB.n446 VPB.n443 1.435
R653 VPB.n173 VPB.n166 1.402
R654 VPB.n173 VPB.n167 1.402
R655 VPB.n173 VPB.n170 1.402
R656 VPB.n173 VPB.n172 1.402
R657 VPB.n174 VPB.n173 0.735
R658 VPB.n173 VPB.n163 0.735
R659 VPB.n217 VPB.n216 0.387
R660 VPB.n217 VPB.n212 0.387
R661 VPB.n217 VPB.n207 0.387
R662 VPB.n218 VPB.n217 0.387
R663 VPB.n276 VPB.n275 0.387
R664 VPB.n276 VPB.n271 0.387
R665 VPB.n276 VPB.n266 0.387
R666 VPB.n277 VPB.n276 0.387
R667 VPB.n323 VPB.n322 0.387
R668 VPB.n323 VPB.n318 0.387
R669 VPB.n323 VPB.n313 0.387
R670 VPB.n324 VPB.n323 0.387
R671 VPB.n386 VPB.n385 0.387
R672 VPB.n386 VPB.n381 0.387
R673 VPB.n386 VPB.n376 0.387
R674 VPB.n387 VPB.n386 0.387
R675 VPB.n433 VPB.n432 0.387
R676 VPB.n433 VPB.n428 0.387
R677 VPB.n433 VPB.n423 0.387
R678 VPB.n434 VPB.n433 0.387
R679 VPB.n113 VPB.n112 0.387
R680 VPB.n113 VPB.n108 0.387
R681 VPB.n113 VPB.n103 0.387
R682 VPB.n114 VPB.n113 0.387
R683 VPB.n92 VPB.n91 0.387
R684 VPB.n92 VPB.n87 0.387
R685 VPB.n92 VPB.n82 0.387
R686 VPB.n93 VPB.n92 0.387
R687 VPB.n521 VPB.n520 0.387
R688 VPB.n521 VPB.n516 0.387
R689 VPB.n521 VPB.n511 0.387
R690 VPB.n522 VPB.n521 0.387
R691 VPB.n580 VPB.n579 0.387
R692 VPB.n580 VPB.n575 0.387
R693 VPB.n580 VPB.n570 0.387
R694 VPB.n581 VPB.n580 0.387
R695 VPB.n627 VPB.n626 0.387
R696 VPB.n627 VPB.n622 0.387
R697 VPB.n627 VPB.n617 0.387
R698 VPB.n628 VPB.n627 0.387
R699 VPB.n674 VPB.n673 0.387
R700 VPB.n674 VPB.n669 0.387
R701 VPB.n674 VPB.n664 0.387
R702 VPB.n675 VPB.n674 0.387
R703 VPB.n733 VPB.n732 0.387
R704 VPB.n733 VPB.n728 0.387
R705 VPB.n733 VPB.n723 0.387
R706 VPB.n734 VPB.n733 0.387
R707 VPB.n31 VPB.n30 0.387
R708 VPB.n31 VPB.n26 0.387
R709 VPB.n31 VPB.n21 0.387
R710 VPB.n32 VPB.n31 0.387
R711 VPB.n765 VPB.n13 0.387
R712 VPB.n765 VPB.n9 0.387
R713 VPB.n765 VPB.n4 0.387
R714 VPB.n765 VPB.n764 0.387
R715 VPB.n226 VPB.n199 0.272
R716 VPB.n285 VPB.n258 0.272
R717 VPB.n332 VPB.n305 0.272
R718 VPB.n395 VPB.n368 0.272
R719 VPB.n442 VPB.n415 0.272
R720 VPB.n462 VPB.n461 0.272
R721 VPB.n467 VPB.n466 0.272
R722 VPB.n530 VPB.n503 0.272
R723 VPB.n589 VPB.n562 0.272
R724 VPB.n636 VPB.n609 0.272
R725 VPB.n683 VPB.n656 0.272
R726 VPB.n742 VPB.n715 0.272
R727 VPB.n753 VPB.n752 0.272
R728 VPB.n757 VPB 0.198
R729 VPB.n189 VPB.n185 0.136
R730 VPB.n195 VPB.n189 0.136
R731 VPB.n199 VPB.n195 0.136
R732 VPB.n230 VPB.n226 0.136
R733 VPB.n234 VPB.n230 0.136
R734 VPB.n238 VPB.n234 0.136
R735 VPB.n243 VPB.n238 0.136
R736 VPB.n250 VPB.n243 0.136
R737 VPB.n254 VPB.n250 0.136
R738 VPB.n258 VPB.n254 0.136
R739 VPB.n291 VPB.n285 0.136
R740 VPB.n295 VPB.n291 0.136
R741 VPB.n301 VPB.n295 0.136
R742 VPB.n305 VPB.n301 0.136
R743 VPB.n337 VPB.n332 0.136
R744 VPB.n342 VPB.n337 0.136
R745 VPB.n349 VPB.n342 0.136
R746 VPB.n354 VPB.n349 0.136
R747 VPB.n359 VPB.n354 0.136
R748 VPB.n364 VPB.n359 0.136
R749 VPB.n368 VPB.n364 0.136
R750 VPB.n401 VPB.n395 0.136
R751 VPB.n405 VPB.n401 0.136
R752 VPB.n411 VPB.n405 0.136
R753 VPB.n415 VPB.n411 0.136
R754 VPB.n447 VPB.n442 0.136
R755 VPB.n452 VPB.n447 0.136
R756 VPB.n457 VPB.n452 0.136
R757 VPB.n458 VPB.n457 0.136
R758 VPB.n459 VPB.n458 0.136
R759 VPB.n460 VPB.n459 0.136
R760 VPB.n461 VPB.n460 0.136
R761 VPB.n463 VPB.n462 0.136
R762 VPB.n464 VPB.n463 0.136
R763 VPB.n465 VPB.n464 0.136
R764 VPB.n466 VPB.n465 0.136
R765 VPB.n479 VPB.n475 0.136
R766 VPB.n483 VPB.n479 0.136
R767 VPB.n488 VPB.n483 0.136
R768 VPB.n495 VPB.n488 0.136
R769 VPB.n499 VPB.n495 0.136
R770 VPB.n503 VPB.n499 0.136
R771 VPB.n534 VPB.n530 0.136
R772 VPB.n538 VPB.n534 0.136
R773 VPB.n542 VPB.n538 0.136
R774 VPB.n547 VPB.n542 0.136
R775 VPB.n554 VPB.n547 0.136
R776 VPB.n558 VPB.n554 0.136
R777 VPB.n562 VPB.n558 0.136
R778 VPB.n595 VPB.n589 0.136
R779 VPB.n599 VPB.n595 0.136
R780 VPB.n605 VPB.n599 0.136
R781 VPB.n609 VPB.n605 0.136
R782 VPB.n642 VPB.n636 0.136
R783 VPB.n646 VPB.n642 0.136
R784 VPB.n652 VPB.n646 0.136
R785 VPB.n656 VPB.n652 0.136
R786 VPB.n687 VPB.n683 0.136
R787 VPB.n691 VPB.n687 0.136
R788 VPB.n695 VPB.n691 0.136
R789 VPB.n700 VPB.n695 0.136
R790 VPB.n707 VPB.n700 0.136
R791 VPB.n711 VPB.n707 0.136
R792 VPB.n715 VPB.n711 0.136
R793 VPB.n746 VPB.n742 0.136
R794 VPB.n747 VPB.n746 0.136
R795 VPB.n748 VPB.n747 0.136
R796 VPB.n749 VPB.n748 0.136
R797 VPB.n750 VPB.n749 0.136
R798 VPB.n751 VPB.n750 0.136
R799 VPB.n752 VPB.n751 0.136
R800 VPB.n754 VPB.n753 0.136
R801 VPB.n755 VPB.n754 0.136
R802 VPB.n756 VPB.n755 0.136
R803 VPB.n757 VPB.n756 0.136
R804 VPB.n467 VPB 0.068
R805 VPB.n475 VPB 0.068
R806 a_3027_943.n2 a_3027_943.t5 477.179
R807 a_3027_943.n4 a_3027_943.t3 420.747
R808 a_3027_943.n2 a_3027_943.t4 406.485
R809 a_3027_943.n3 a_3027_943.n2 211.151
R810 a_3027_943.n6 a_3027_943.n4 188.704
R811 a_3027_943.n3 a_3027_943.n1 114.038
R812 a_3027_943.n4 a_3027_943.n3 53.105
R813 a_3027_943.n6 a_3027_943.n5 30
R814 a_3027_943.n7 a_3027_943.n0 24.383
R815 a_3027_943.n7 a_3027_943.n6 23.684
R816 a_3027_943.n1 a_3027_943.t1 14.282
R817 a_3027_943.n1 a_3027_943.t0 14.282
R818 a_807_943.n2 a_807_943.t4 477.179
R819 a_807_943.n4 a_807_943.t5 420.747
R820 a_807_943.n2 a_807_943.t3 406.485
R821 a_807_943.n3 a_807_943.n2 211.151
R822 a_807_943.n6 a_807_943.n4 188.704
R823 a_807_943.n3 a_807_943.n1 114.038
R824 a_807_943.n4 a_807_943.n3 53.105
R825 a_807_943.n6 a_807_943.n5 30
R826 a_807_943.n7 a_807_943.n0 24.383
R827 a_807_943.n7 a_807_943.n6 23.684
R828 a_807_943.n1 a_807_943.t2 14.282
R829 a_807_943.n1 a_807_943.t1 14.282
R830 a_836_182.n2 a_836_182.t14 512.525
R831 a_836_182.n3 a_836_182.t6 480.392
R832 a_836_182.n6 a_836_182.t8 472.359
R833 a_836_182.n3 a_836_182.t12 403.272
R834 a_836_182.n6 a_836_182.t9 384.527
R835 a_836_182.n2 a_836_182.t7 371.139
R836 a_836_182.n4 a_836_182.t11 319.721
R837 a_836_182.n12 a_836_182.n11 242.02
R838 a_836_182.n16 a_836_182.n14 220.281
R839 a_836_182.n7 a_836_182.n6 201.031
R840 a_836_182.n5 a_836_182.n4 153.859
R841 a_836_182.n12 a_836_182.n10 148.471
R842 a_836_182.n14 a_836_182.n1 148.471
R843 a_836_182.n7 a_836_182.t10 141.018
R844 a_836_182.n8 a_836_182.t13 136.079
R845 a_836_182.n8 a_836_182.n7 107.619
R846 a_836_182.n9 a_836_182.n8 107.477
R847 a_836_182.n5 a_836_182.n2 105.194
R848 a_836_182.n13 a_836_182.n9 78.675
R849 a_836_182.n14 a_836_182.n13 78.403
R850 a_836_182.n13 a_836_182.n12 76
R851 a_836_182.n4 a_836_182.n3 55.388
R852 a_836_182.n16 a_836_182.n15 30
R853 a_836_182.n9 a_836_182.n5 26.552
R854 a_836_182.n17 a_836_182.n0 24.383
R855 a_836_182.n17 a_836_182.n16 23.684
R856 a_836_182.n10 a_836_182.t0 14.282
R857 a_836_182.n10 a_836_182.t1 14.282
R858 a_836_182.n1 a_836_182.t2 14.282
R859 a_836_182.n1 a_836_182.t3 14.282
R860 a_575_1004.t1 a_575_1004.n0 101.66
R861 a_575_1004.n0 a_575_1004.t3 101.659
R862 a_575_1004.n0 a_575_1004.t2 14.294
R863 a_575_1004.n0 a_575_1004.t0 14.282
R864 a_2795_1004.t1 a_2795_1004.n0 101.663
R865 a_2795_1004.n0 a_2795_1004.t2 101.661
R866 a_2795_1004.n0 a_2795_1004.t0 14.294
R867 a_2795_1004.n0 a_2795_1004.t3 14.282
R868 a_5291_182.n2 a_5291_182.t3 486.819