* SPICE3 file created from FA.ext - technology: sky130A

.subckt FA SUM COUT A B CIN VDD GND
M1000 a_5767_1050.t4 A.t0 VDD.t23 pshort w=2u l=0.15u
+  ad=0p pd=0u as=0p ps=0u
M1001 a_3461_1051.t3 CIN.t0 VDD.t0 pshort w=2u l=0.15u
+  ad=0p pd=0u as=0p ps=0u
M1002 a_6401_209.t1 a_5767_1050.t5 VDD.t30 pshort w=2u l=0.15u
+  ad=0p pd=0u as=0p ps=0u
M1003 a_6858_209.t2 a_6401_209.t3 a_6791_1051.t2 pshort w=2u l=0.15u
+  ad=0p pd=0u as=0p ps=0u
M1004 VDD.t31 CIN.t1 a_4657_1050.t2 pshort w=2u l=0.15u
+  ad=0p pd=0u as=0p ps=0u
M1005 a_575_1051.t2 A.t3 VDD.t24 pshort w=2u l=0.15u
+  ad=0p pd=0u as=0p ps=0u
M1006 GND a_3027_990.t3 a_3442_101.t0 nshort w=-1.605u l=1.765u
+  ad=10.9968p pd=79.06u as=0p ps=0u
M1007 a_836_209.t3 a_185_209.t3 a_1241_1051.t3 pshort w=2u l=0.15u
+  ad=0p pd=0u as=0p ps=0u
M1008 VDD.t7 B.t0 a_807_990.t2 pshort w=2u l=0.15u
+  ad=0p pd=0u as=0p ps=0u
M1009 a_6791_1051.t1 a_5291_209.t3 VDD.t8 pshort w=2u l=0.15u
+  ad=0p pd=0u as=0p ps=0u
M1010 COUT a_6858_209.t4 GND.t7 nshort w=-1.605u l=1.765u
+  ad=0.1791p pd=1.57u as=0p ps=0u
M1011 VDD.t3 a_836_209.t7 a_2795_1051.t3 pshort w=2u l=0.15u
+  ad=0p pd=0u as=0p ps=0u
M1012 VDD.t15 a_836_209.t8 a_2405_209.t2 pshort w=2u l=0.15u
+  ad=0p pd=0u as=0p ps=0u
M1013 a_807_990.t1 B.t1 VDD.t18 pshort w=2u l=0.15u
+  ad=0p pd=0u as=0p ps=0u
M1014 VDD.t9 a_4657_1050.t5 a_5291_209.t2 pshort w=2u l=0.15u
+  ad=0p pd=0u as=0p ps=0u
M1015 a_185_209.t2 A.t4 VDD.t21 pshort w=2u l=0.15u
+  ad=0p pd=0u as=0p ps=0u
M1016 a_3027_990.t2 CIN.t2 VDD.t5 pshort w=2u l=0.15u
+  ad=0p pd=0u as=0p ps=0u
M1017 SUM.t2 a_3027_990.t4 a_2795_1051.t1 pshort w=2u l=0.15u
+  ad=0p pd=0u as=0p ps=0u
M1018 a_3461_1051.t0 a_2405_209.t3 SUM.t4 pshort w=2u l=0.15u
+  ad=0p pd=0u as=0p ps=0u
M1019 COUT.t2 a_6858_209.t5 VDD.t12 pshort w=2u l=0.15u
+  ad=0p pd=0u as=0p ps=0u
M1020 VDD.t14 a_836_209.t9 a_4657_1050.t0 pshort w=2u l=0.15u
+  ad=0p pd=0u as=0p ps=0u
M1021 VDD.t6 B.t4 a_5767_1050.t0 pshort w=2u l=0.15u
+  ad=0p pd=0u as=0p ps=0u
M1022 SUM a_2405_209.t4 a_3442_101.t0 nshort w=-1.605u l=1.765u
+  ad=0.3582p pd=3.14u as=0p ps=0u
M1023 a_2795_1051.t2 a_836_209.t10 VDD.t27 pshort w=2u l=0.15u
+  ad=0p pd=0u as=0p ps=0u
M1024 VDD.t13 CIN.t4 a_3461_1051.t2 pshort w=2u l=0.15u
+  ad=0p pd=0u as=0p ps=0u
M1025 a_575_1051.t0 a_807_990.t3 a_836_209.t0 pshort w=2u l=0.15u
+  ad=0p pd=0u as=0p ps=0u
M1026 a_4657_1050.t1 CIN.t5 VDD.t10 pshort w=2u l=0.15u
+  ad=0p pd=0u as=0p ps=0u
M1027 a_1241_1051.t1 B.t5 VDD.t17 pshort w=2u l=0.15u
+  ad=0p pd=0u as=0p ps=0u
M1028 VDD.t2 a_5291_209.t5 a_6791_1051.t0 pshort w=2u l=0.15u
+  ad=0p pd=0u as=0p ps=0u
M1029 GND CIN.t6 a_4552_101.t0 nshort w=-1.605u l=1.765u
+  ad=0p pd=0u as=0p ps=0u
M1030 VDD.t16 a_5767_1050.t7 a_6401_209.t0 pshort w=2u l=0.15u
+  ad=0p pd=0u as=0p ps=0u
M1031 a_6791_1051.t3 a_6401_209.t5 a_6858_209.t1 pshort w=2u l=0.15u
+  ad=0p pd=0u as=0p ps=0u
M1032 GND a_836_209.t13 a_2776_101.t0 nshort w=-1.605u l=1.765u
+  ad=0p pd=0u as=0p ps=0u
M1033 a_2405_209.t1 a_836_209.t11 VDD.t29 pshort w=2u l=0.15u
+  ad=0p pd=0u as=0p ps=0u
M1034 a_4657_1050.t3 a_836_209.t12 VDD.t28 pshort w=2u l=0.15u
+  ad=0p pd=0u as=0p ps=0u
M1035 a_836_209.t5 a_807_990.t4 a_575_1051.t3 pshort w=2u l=0.15u
+  ad=0p pd=0u as=0p ps=0u
M1036 a_5291_209.t1 a_4657_1050.t6 VDD.t4 pshort w=2u l=0.15u
+  ad=0p pd=0u as=0p ps=0u
M1037 a_1241_1051.t2 a_185_209.t5 a_836_209.t4 pshort w=2u l=0.15u
+  ad=0p pd=0u as=0p ps=0u
M1038 GND a_807_990.t5 a_1222_101.t0 nshort w=-1.605u l=1.765u
+  ad=0p pd=0u as=0p ps=0u
M1039 SUM CIN.t8 a_2776_101.t0 nshort w=-1.605u l=1.765u
+  ad=0p pd=0u as=0p ps=0u
M1040 GND B.t7 a_5662_101.t0 nshort w=-1.605u l=1.765u
+  ad=0p pd=0u as=0p ps=0u
M1041 VDD.t22 A.t6 a_575_1051.t1 pshort w=2u l=0.15u
+  ad=0p pd=0u as=0p ps=0u
M1042 VDD.t20 A.t7 a_185_209.t1 pshort w=2u l=0.15u
+  ad=0p pd=0u as=0p ps=0u
M1043 SUM.t3 a_2405_209.t5 a_3461_1051.t1 pshort w=2u l=0.15u
+  ad=0p pd=0u as=0p ps=0u
M1044 a_5767_1050.t1 B.t6 VDD.t11 pshort w=2u l=0.15u
+  ad=0p pd=0u as=0p ps=0u
M1045 GND A.t2 a_556_101.t0 nshort w=-1.605u l=1.765u
+  ad=0p pd=0u as=0p ps=0u
M1046 VDD.t26 CIN.t7 a_3027_990.t1 pshort w=2u l=0.15u
+  ad=0p pd=0u as=0p ps=0u
M1047 VDD.t25 A.t8 a_5767_1050.t3 pshort w=2u l=0.15u
+  ad=0p pd=0u as=0p ps=0u
M1048 a_2795_1051.t0 a_3027_990.t5 SUM.t1 pshort w=2u l=0.15u
+  ad=0p pd=0u as=0p ps=0u
M1049 VDD.t1 B.t8 a_1241_1051.t0 pshort w=2u l=0.15u
+  ad=0p pd=0u as=0p ps=0u
M1050 VDD.t19 a_6858_209.t6 COUT.t1 pshort w=2u l=0.15u
+  ad=0p pd=0u as=0p ps=0u
C0 A B 0.85fF
C1 VDD SUM 0.53fF
C2 A SUM 0.26fF
C3 VDD CIN 0.88fF
C4 A CIN 0.54fF
C5 B SUM 0.24fF
C6 B CIN 1.51fF
C7 SUM CIN 0.62fF
C8 COUT VDD 0.76fF
C9 VDD A 0.58fF
C10 VDD B 1.29fF
R0 A.n5 A.t7 512.525
R1 A.n0 A.t3 480.392
R2 A.n1 A.t8 472.359
R3 A.n0 A.t6 403.272
R4 A.n1 A.t0 384.527
R5 A.n5 A.t4 371.139
R6 A.n6 A.t1 290.093
R7 A.n2 A.n1 213.314
R8 A.n3 A.t2 183.422
R9 A.n3 A.n2 171.69
R10 A.n4 A.n3 156.359
R11 A.n2 A.t5 141.114
R12 A.n6 A.n5 93.541
R13 A.n7 A.n4 77.859
R14 A.n7 A.n6 76
R15 A.n4 A.n0 45.7
R16 A.n7 A 0.046
R17 VDD.n434 VDD.n432 144.705
R18 VDD.n493 VDD.n491 144.705
R19 VDD.n551 VDD.n549 144.705
R20 VDD.n618 VDD.n616 144.705
R21 VDD.n643 VDD.n641 144.705
R22 VDD.n386 VDD.n384 144.705
R23 VDD.n701 VDD.n699 144.705
R24 VDD.n340 VDD.n338 144.705
R25 VDD.n279 VDD.n277 144.705
R26 VDD.n233 VDD.n231 144.705
R27 VDD.n172 VDD.n170 144.705
R28 VDD.n126 VDD.n124 144.705
R29 VDD.n68 VDD.n66 144.705
R30 VDD.n26 VDD.n25 77.792
R31 VDD.n35 VDD.n34 77.792
R32 VDD.n131 VDD.n130 77.792
R33 VDD.n141 VDD.n140 77.792
R34 VDD.n238 VDD.n237 77.792
R35 VDD.n247 VDD.n246 77.792
R36 VDD.n345 VDD.n344 77.792
R37 VDD.n355 VDD.n354 77.792
R38 VDD.n633 VDD.n632 77.792
R39 VDD.n622 VDD.n621 77.792
R40 VDD.n587 VDD.n586 77.792
R41 VDD.n577 VDD.n576 77.792
R42 VDD.n424 VDD.n423 77.792
R43 VDD.n413 VDD.n412 77.792
R44 VDD.n29 VDD.n23 76.145
R45 VDD.n29 VDD.n28 76
R46 VDD.n33 VDD.n32 76
R47 VDD.n39 VDD.n38 76
R48 VDD.n43 VDD.n42 76
R49 VDD.n70 VDD.n69 76
R50 VDD.n74 VDD.n73 76
R51 VDD.n78 VDD.n77 76
R52 VDD.n82 VDD.n81 76
R53 VDD.n87 VDD.n86 76
R54 VDD.n94 VDD.n93 76
R55 VDD.n98 VDD.n97 76
R56 VDD.n102 VDD.n101 76
R57 VDD.n128 VDD.n127 76
R58 VDD.n134 VDD.n133 76
R59 VDD.n138 VDD.n137 76
R60 VDD.n144 VDD.n143 76
R61 VDD.n148 VDD.n147 76
R62 VDD.n174 VDD.n173 76
R63 VDD.n179 VDD.n178 76
R64 VDD.n184 VDD.n183 76
R65 VDD.n190 VDD.n189 76
R66 VDD.n195 VDD.n194 76
R67 VDD.n200 VDD.n199 76
R68 VDD.n205 VDD.n204 76
R69 VDD.n209 VDD.n208 76
R70 VDD.n235 VDD.n234 76
R71 VDD.n241 VDD.n240 76
R72 VDD.n245 VDD.n244 76
R73 VDD.n251 VDD.n250 76
R74 VDD.n255 VDD.n254 76
R75 VDD.n281 VDD.n280 76
R76 VDD.n286 VDD.n285 76
R77 VDD.n291 VDD.n290 76
R78 VDD.n297 VDD.n296 76
R79 VDD.n302 VDD.n301 76
R80 VDD.n307 VDD.n306 76
R81 VDD.n312 VDD.n311 76
R82 VDD.n316 VDD.n315 76
R83 VDD.n342 VDD.n341 76
R84 VDD.n348 VDD.n347 76
R85 VDD.n352 VDD.n351 76
R86 VDD.n358 VDD.n357 76
R87 VDD.n362 VDD.n361 76
R88 VDD.n388 VDD.n387 76
R89 VDD.n752 VDD.n751 76
R90 VDD.n748 VDD.n747 76
R91 VDD.n744 VDD.n743 76
R92 VDD.n740 VDD.n739 76
R93 VDD.n735 VDD.n734 76
R94 VDD.n728 VDD.n727 76
R95 VDD.n724 VDD.n723 76
R96 VDD.n698 VDD.n697 76
R97 VDD.n694 VDD.n693 76
R98 VDD.n690 VDD.n689 76
R99 VDD.n686 VDD.n685 76
R100 VDD.n682 VDD.n681 76
R101 VDD.n677 VDD.n676 76
R102 VDD.n670 VDD.n669 76
R103 VDD.n666 VDD.n665 76
R104 VDD.n640 VDD.n639 76
R105 VDD.n636 VDD.n635 76
R106 VDD.n630 VDD.n629 76
R107 VDD.n626 VDD.n625 76
R108 VDD.n620 VDD.n619 76
R109 VDD.n594 VDD.n593 76
R110 VDD.n590 VDD.n589 76
R111 VDD.n584 VDD.n583 76
R112 VDD.n580 VDD.n579 76
R113 VDD.n574 VDD.n573 76
R114 VDD.n548 VDD.n547 76
R115 VDD.n544 VDD.n543 76
R116 VDD.n540 VDD.n539 76
R117 VDD.n536 VDD.n535 76
R118 VDD.n532 VDD.n531 76
R119 VDD.n527 VDD.n526 76
R120 VDD.n520 VDD.n519 76
R121 VDD.n516 VDD.n515 76
R122 VDD.n490 VDD.n489 76
R123 VDD.n486 VDD.n485 76
R124 VDD.n482 VDD.n481 76
R125 VDD.n478 VDD.n477 76
R126 VDD.n474 VDD.n473 76
R127 VDD.n469 VDD.n468 76
R128 VDD.n462 VDD.n461 76
R129 VDD.n458 VDD.n457 76
R130 VDD.n431 VDD.n430 76
R131 VDD.n427 VDD.n426 76
R132 VDD.n421 VDD.n420 76
R133 VDD.n417 VDD.n416 76
R134 VDD.n411 VDD.n410 76
R135 VDD.n464 VDD.n463 65.585
R136 VDD.n522 VDD.n521 65.585
R137 VDD.n672 VDD.n671 65.585
R138 VDD.n730 VDD.n729 65.585
R139 VDD.n415 VDD.t21 55.106
R140 VDD.n422 VDD.t20 55.106
R141 VDD.n575 VDD.t18 55.106
R142 VDD.n585 VDD.t7 55.106
R143 VDD.n624 VDD.t29 55.106
R144 VDD.n631 VDD.t15 55.106
R145 VDD.n353 VDD.t5 55.106
R146 VDD.n343 VDD.t26 55.106
R147 VDD.n308 VDD.t10 55.106
R148 VDD.n249 VDD.t4 55.106
R149 VDD.n236 VDD.t9 55.106
R150 VDD.n201 VDD.t11 55.106
R151 VDD.n139 VDD.t30 55.106
R152 VDD.n129 VDD.t16 55.106
R153 VDD.n37 VDD.t12 55.106
R154 VDD.n24 VDD.t19 55.106
R155 VDD.n282 VDD.t14 55.106
R156 VDD.n177 VDD.t25 55.106
R157 VDD.n89 VDD.n88 41.183
R158 VDD.n293 VDD.n292 40.824
R159 VDD.n188 VDD.n187 40.824
R160 VDD.n498 VDD.n497 36.774
R161 VDD.n556 VDD.n555 36.774
R162 VDD.n599 VDD.n598 36.774
R163 VDD.n648 VDD.n647 36.774
R164 VDD.n706 VDD.n705 36.774
R165 VDD.n367 VDD.n366 36.774
R166 VDD.n321 VDD.n320 36.774
R167 VDD.n260 VDD.n259 36.774
R168 VDD.n214 VDD.n213 36.774
R169 VDD.n153 VDD.n152 36.774
R170 VDD.n107 VDD.n106 36.774
R171 VDD.n48 VDD.n47 36.774
R172 VDD.n450 VDD.n449 36.774
R173 VDD.n181 VDD.n180 36.608
R174 VDD.n288 VDD.n287 36.608
R175 VDD.n91 VDD.n90 32.032
R176 VDD.n197 VDD.n196 32.032
R177 VDD.n304 VDD.n303 32.032
R178 VDD.n732 VDD.n731 32.032
R179 VDD.n674 VDD.n673 32.032
R180 VDD.n524 VDD.n523 32.032
R181 VDD.n466 VDD.n465 32.032
R182 VDD.n410 VDD.n407 21.841
R183 VDD.n23 VDD.n20 21.841
R184 VDD.n463 VDD.t24 14.282
R185 VDD.n463 VDD.t22 14.282
R186 VDD.n521 VDD.t17 14.282
R187 VDD.n521 VDD.t1 14.282
R188 VDD.n671 VDD.t27 14.282
R189 VDD.n671 VDD.t3 14.282
R190 VDD.n729 VDD.t0 14.282
R191 VDD.n729 VDD.t13 14.282
R192 VDD.n292 VDD.t28 14.282
R193 VDD.n292 VDD.t31 14.282
R194 VDD.n187 VDD.t23 14.282
R195 VDD.n187 VDD.t6 14.282
R196 VDD.n88 VDD.t8 14.282
R197 VDD.n88 VDD.t2 14.282
R198 VDD.n407 VDD.n390 14.167
R199 VDD.n390 VDD.n389 14.167
R200 VDD.n513 VDD.n495 14.167
R201 VDD.n495 VDD.n494 14.167
R202 VDD.n571 VDD.n553 14.167
R203 VDD.n553 VDD.n552 14.167
R204 VDD.n614 VDD.n596 14.167
R205 VDD.n596 VDD.n595 14.167
R206 VDD.n663 VDD.n645 14.167
R207 VDD.n645 VDD.n644 14.167
R208 VDD.n721 VDD.n703 14.167
R209 VDD.n703 VDD.n702 14.167
R210 VDD.n382 VDD.n364 14.167
R211 VDD.n364 VDD.n363 14.167
R212 VDD.n336 VDD.n318 14.167
R213 VDD.n318 VDD.n317 14.167
R214 VDD.n275 VDD.n257 14.167
R215 VDD.n257 VDD.n256 14.167
R216 VDD.n229 VDD.n211 14.167
R217 VDD.n211 VDD.n210 14.167
R218 VDD.n168 VDD.n150 14.167
R219 VDD.n150 VDD.n149 14.167
R220 VDD.n122 VDD.n104 14.167
R221 VDD.n104 VDD.n103 14.167
R222 VDD.n64 VDD.n45 14.167
R223 VDD.n45 VDD.n44 14.167
R224 VDD.n455 VDD.n436 14.167
R225 VDD.n436 VDD.n435 14.167
R226 VDD.n20 VDD.n19 14.167
R227 VDD.n19 VDD.n17 14.167
R228 VDD.n69 VDD.n65 14.167
R229 VDD.n127 VDD.n123 14.167
R230 VDD.n173 VDD.n169 14.167
R231 VDD.n234 VDD.n230 14.167
R232 VDD.n280 VDD.n276 14.167
R233 VDD.n341 VDD.n337 14.167
R234 VDD.n387 VDD.n383 14.167
R235 VDD.n723 VDD.n722 14.167
R236 VDD.n665 VDD.n664 14.167
R237 VDD.n619 VDD.n615 14.167
R238 VDD.n573 VDD.n572 14.167
R239 VDD.n515 VDD.n514 14.167
R240 VDD.n457 VDD.n456 14.167
R241 VDD.n23 VDD.n22 13.653
R242 VDD.n22 VDD.n21 13.653
R243 VDD.n28 VDD.n27 13.653
R244 VDD.n27 VDD.n26 13.653
R245 VDD.n32 VDD.n31 13.653
R246 VDD.n31 VDD.n30 13.653
R247 VDD.n38 VDD.n36 13.653
R248 VDD.n36 VDD.n35 13.653
R249 VDD.n42 VDD.n41 13.653
R250 VDD.n41 VDD.n40 13.653
R251 VDD.n69 VDD.n68 13.653
R252 VDD.n68 VDD.n67 13.653
R253 VDD.n73 VDD.n72 13.653
R254 VDD.n72 VDD.n71 13.653
R255 VDD.n77 VDD.n76 13.653
R256 VDD.n76 VDD.n75 13.653
R257 VDD.n81 VDD.n80 13.653
R258 VDD.n80 VDD.n79 13.653
R259 VDD.n86 VDD.n85 13.653
R260 VDD.n85 VDD.n84 13.653
R261 VDD.n93 VDD.n92 13.653
R262 VDD.n92 VDD.n91 13.653
R263 VDD.n97 VDD.n96 13.653
R264 VDD.n96 VDD.n95 13.653
R265 VDD.n101 VDD.n100 13.653
R266 VDD.n100 VDD.n99 13.653
R267 VDD.n127 VDD.n126 13.653
R268 VDD.n126 VDD.n125 13.653
R269 VDD.n133 VDD.n132 13.653
R270 VDD.n132 VDD.n131 13.653
R271 VDD.n137 VDD.n136 13.653
R272 VDD.n136 VDD.n135 13.653
R273 VDD.n143 VDD.n142 13.653
R274 VDD.n142 VDD.n141 13.653
R275 VDD.n147 VDD.n146 13.653
R276 VDD.n146 VDD.n145 13.653
R277 VDD.n173 VDD.n172 13.653
R278 VDD.n172 VDD.n171 13.653
R279 VDD.n178 VDD.n176 13.653
R280 VDD.n176 VDD.n175 13.653
R281 VDD.n183 VDD.n182 13.653
R282 VDD.n182 VDD.n181 13.653
R283 VDD.n189 VDD.n186 13.653
R284 VDD.n186 VDD.n185 13.653
R285 VDD.n194 VDD.n193 13.653
R286 VDD.n193 VDD.n192 13.653
R287 VDD.n199 VDD.n198 13.653
R288 VDD.n198 VDD.n197 13.653
R289 VDD.n204 VDD.n203 13.653
R290 VDD.n203 VDD.n202 13.653
R291 VDD.n208 VDD.n207 13.653
R292 VDD.n207 VDD.n206 13.653
R293 VDD.n234 VDD.n233 13.653
R294 VDD.n233 VDD.n232 13.653
R295 VDD.n240 VDD.n239 13.653
R296 VDD.n239 VDD.n238 13.653
R297 VDD.n244 VDD.n243 13.653
R298 VDD.n243 VDD.n242 13.653
R299 VDD.n250 VDD.n248 13.653
R300 VDD.n248 VDD.n247 13.653
R301 VDD.n254 VDD.n253 13.653
R302 VDD.n253 VDD.n252 13.653
R303 VDD.n280 VDD.n279 13.653
R304 VDD.n279 VDD.n278 13.653
R305 VDD.n285 VDD.n284 13.653
R306 VDD.n284 VDD.n283 13.653
R307 VDD.n290 VDD.n289 13.653
R308 VDD.n289 VDD.n288 13.653
R309 VDD.n296 VDD.n295 13.653
R310 VDD.n295 VDD.n294 13.653
R311 VDD.n301 VDD.n300 13.653
R312 VDD.n300 VDD.n299 13.653
R313 VDD.n306 VDD.n305 13.653
R314 VDD.n305 VDD.n304 13.653
R315 VDD.n311 VDD.n310 13.653
R316 VDD.n310 VDD.n309 13.653
R317 VDD.n315 VDD.n314 13.653
R318 VDD.n314 VDD.n313 13.653
R319 VDD.n341 VDD.n340 13.653
R320 VDD.n340 VDD.n339 13.653
R321 VDD.n347 VDD.n346 13.653
R322 VDD.n346 VDD.n345 13.653
R323 VDD.n351 VDD.n350 13.653
R324 VDD.n350 VDD.n349 13.653
R325 VDD.n357 VDD.n356 13.653
R326 VDD.n356 VDD.n355 13.653
R327 VDD.n361 VDD.n360 13.653
R328 VDD.n360 VDD.n359 13.653
R329 VDD.n387 VDD.n386 13.653
R330 VDD.n386 VDD.n385 13.653
R331 VDD.n751 VDD.n750 13.653
R332 VDD.n750 VDD.n749 13.653
R333 VDD.n747 VDD.n746 13.653
R334 VDD.n746 VDD.n745 13.653
R335 VDD.n743 VDD.n742 13.653
R336 VDD.n742 VDD.n741 13.653
R337 VDD.n739 VDD.n738 13.653
R338 VDD.n738 VDD.n737 13.653
R339 VDD.n734 VDD.n733 13.653
R340 VDD.n733 VDD.n732 13.653
R341 VDD.n727 VDD.n726 13.653
R342 VDD.n726 VDD.n725 13.653
R343 VDD.n723 VDD.n701 13.653
R344 VDD.n701 VDD.n700 13.653
R345 VDD.n697 VDD.n696 13.653
R346 VDD.n696 VDD.n695 13.653
R347 VDD.n693 VDD.n692 13.653
R348 VDD.n692 VDD.n691 13.653
R349 VDD.n689 VDD.n688 13.653
R350 VDD.n688 VDD.n687 13.653
R351 VDD.n685 VDD.n684 13.653
R352 VDD.n684 VDD.n683 13.653
R353 VDD.n681 VDD.n680 13.653
R354 VDD.n680 VDD.n679 13.653
R355 VDD.n676 VDD.n675 13.653
R356 VDD.n675 VDD.n674 13.653
R357 VDD.n669 VDD.n668 13.653
R358 VDD.n668 VDD.n667 13.653
R359 VDD.n665 VDD.n643 13.653
R360 VDD.n643 VDD.n642 13.653
R361 VDD.n639 VDD.n638 13.653
R362 VDD.n638 VDD.n637 13.653
R363 VDD.n635 VDD.n634 13.653
R364 VDD.n634 VDD.n633 13.653
R365 VDD.n629 VDD.n628 13.653
R366 VDD.n628 VDD.n627 13.653
R367 VDD.n625 VDD.n623 13.653
R368 VDD.n623 VDD.n622 13.653
R369 VDD.n619 VDD.n618 13.653
R370 VDD.n618 VDD.n617 13.653
R371 VDD.n593 VDD.n592 13.653
R372 VDD.n592 VDD.n591 13.653
R373 VDD.n589 VDD.n588 13.653
R374 VDD.n588 VDD.n587 13.653
R375 VDD.n583 VDD.n582 13.653
R376 VDD.n582 VDD.n581 13.653
R377 VDD.n579 VDD.n578 13.653
R378 VDD.n578 VDD.n577 13.653
R379 VDD.n573 VDD.n551 13.653
R380 VDD.n551 VDD.n550 13.653
R381 VDD.n547 VDD.n546 13.653
R382 VDD.n546 VDD.n545 13.653
R383 VDD.n543 VDD.n542 13.653
R384 VDD.n542 VDD.n541 13.653
R385 VDD.n539 VDD.n538 13.653
R386 VDD.n538 VDD.n537 13.653
R387 VDD.n535 VDD.n534 13.653
R388 VDD.n534 VDD.n533 13.653
R389 VDD.n531 VDD.n530 13.653
R390 VDD.n530 VDD.n529 13.653
R391 VDD.n526 VDD.n525 13.653
R392 VDD.n525 VDD.n524 13.653
R393 VDD.n519 VDD.n518 13.653
R394 VDD.n518 VDD.n517 13.653
R395 VDD.n515 VDD.n493 13.653
R396 VDD.n493 VDD.n492 13.653
R397 VDD.n489 VDD.n488 13.653
R398 VDD.n488 VDD.n487 13.653
R399 VDD.n485 VDD.n484 13.653
R400 VDD.n484 VDD.n483 13.653
R401 VDD.n481 VDD.n480 13.653
R402 VDD.n480 VDD.n479 13.653
R403 VDD.n477 VDD.n476 13.653
R404 VDD.n476 VDD.n475 13.653
R405 VDD.n473 VDD.n472 13.653
R406 VDD.n472 VDD.n471 13.653
R407 VDD.n468 VDD.n467 13.653
R408 VDD.n467 VDD.n466 13.653
R409 VDD.n461 VDD.n460 13.653
R410 VDD.n460 VDD.n459 13.653
R411 VDD.n457 VDD.n434 13.653
R412 VDD.n434 VDD.n433 13.653
R413 VDD.n430 VDD.n429 13.653
R414 VDD.n429 VDD.n428 13.653
R415 VDD.n426 VDD.n425 13.653
R416 VDD.n425 VDD.n424 13.653
R417 VDD.n420 VDD.n419 13.653
R418 VDD.n419 VDD.n418 13.653
R419 VDD.n416 VDD.n414 13.653
R420 VDD.n414 VDD.n413 13.653
R421 VDD.n410 VDD.n409 13.653
R422 VDD.n409 VDD.n408 13.653
R423 VDD.n4 VDD.n2 12.915
R424 VDD.n4 VDD.n3 12.66
R425 VDD.n12 VDD.n11 12.343
R426 VDD.n12 VDD.n9 12.343
R427 VDD.n7 VDD.n6 12.343
R428 VDD.n189 VDD.n188 8.658
R429 VDD.n296 VDD.n293 8.658
R430 VDD.n514 VDD.n513 7.674
R431 VDD.n572 VDD.n571 7.674
R432 VDD.n615 VDD.n614 7.674
R433 VDD.n664 VDD.n663 7.674
R434 VDD.n722 VDD.n721 7.674
R435 VDD.n383 VDD.n382 7.674
R436 VDD.n337 VDD.n336 7.674
R437 VDD.n276 VDD.n275 7.674
R438 VDD.n230 VDD.n229 7.674
R439 VDD.n169 VDD.n168 7.674
R440 VDD.n123 VDD.n122 7.674
R441 VDD.n65 VDD.n64 7.674
R442 VDD.n456 VDD.n455 7.674
R443 VDD.n59 VDD.n58 7.5
R444 VDD.n53 VDD.n52 7.5
R445 VDD.n55 VDD.n54 7.5
R446 VDD.n50 VDD.n49 7.5
R447 VDD.n64 VDD.n63 7.5
R448 VDD.n117 VDD.n116 7.5
R449 VDD.n111 VDD.n110 7.5
R450 VDD.n113 VDD.n112 7.5
R451 VDD.n119 VDD.n109 7.5
R452 VDD.n119 VDD.n107 7.5
R453 VDD.n122 VDD.n121 7.5
R454 VDD.n163 VDD.n162 7.5
R455 VDD.n157 VDD.n156 7.5
R456 VDD.n159 VDD.n158 7.5
R457 VDD.n165 VDD.n155 7.5
R458 VDD.n165 VDD.n153 7.5
R459 VDD.n168 VDD.n167 7.5
R460 VDD.n224 VDD.n223 7.5
R461 VDD.n218 VDD.n217 7.5
R462 VDD.n220 VDD.n219 7.5
R463 VDD.n226 VDD.n216 7.5
R464 VDD.n226 VDD.n214 7.5
R465 VDD.n229 VDD.n228 7.5
R466 VDD.n270 VDD.n269 7.5
R467 VDD.n264 VDD.n263 7.5
R468 VDD.n266 VDD.n265 7.5
R469 VDD.n272 VDD.n262 7.5
R470 VDD.n272 VDD.n260 7.5
R471 VDD.n275 VDD.n274 7.5
R472 VDD.n331 VDD.n330 7.5
R473 VDD.n325 VDD.n324 7.5
R474 VDD.n327 VDD.n326 7.5
R475 VDD.n333 VDD.n323 7.5
R476 VDD.n333 VDD.n321 7.5
R477 VDD.n336 VDD.n335 7.5
R478 VDD.n377 VDD.n376 7.5
R479 VDD.n371 VDD.n370 7.5
R480 VDD.n373 VDD.n372 7.5
R481 VDD.n379 VDD.n369 7.5
R482 VDD.n379 VDD.n367 7.5
R483 VDD.n382 VDD.n381 7.5
R484 VDD.n716 VDD.n715 7.5
R485 VDD.n710 VDD.n709 7.5
R486 VDD.n712 VDD.n711 7.5
R487 VDD.n718 VDD.n708 7.5
R488 VDD.n718 VDD.n706 7.5
R489 VDD.n721 VDD.n720 7.5
R490 VDD.n658 VDD.n657 7.5
R491 VDD.n652 VDD.n651 7.5
R492 VDD.n654 VDD.n653 7.5
R493 VDD.n660 VDD.n650 7.5
R494 VDD.n660 VDD.n648 7.5
R495 VDD.n663 VDD.n662 7.5
R496 VDD.n609 VDD.n608 7.5
R497 VDD.n603 VDD.n602 7.5
R498 VDD.n605 VDD.n604 7.5
R499 VDD.n611 VDD.n601 7.5
R500 VDD.n611 VDD.n599 7.5
R501 VDD.n614 VDD.n613 7.5
R502 VDD.n566 VDD.n565 7.5
R503 VDD.n560 VDD.n559 7.5
R504 VDD.n562 VDD.n561 7.5
R505 VDD.n568 VDD.n558 7.5
R506 VDD.n568 VDD.n556 7.5
R507 VDD.n571 VDD.n570 7.5
R508 VDD.n508 VDD.n507 7.5
R509 VDD.n502 VDD.n501 7.5
R510 VDD.n504 VDD.n503 7.5
R511 VDD.n510 VDD.n500 7.5
R512 VDD.n510 VDD.n498 7.5
R513 VDD.n513 VDD.n512 7.5
R514 VDD.n440 VDD.n439 7.5
R515 VDD.n443 VDD.n442 7.5
R516 VDD.n445 VDD.n444 7.5
R517 VDD.n448 VDD.n447 7.5
R518 VDD.n455 VDD.n454 7.5
R519 VDD.n402 VDD.n401 7.5
R520 VDD.n396 VDD.n395 7.5
R521 VDD.n398 VDD.n397 7.5
R522 VDD.n404 VDD.n394 7.5
R523 VDD.n404 VDD.n392 7.5
R524 VDD.n407 VDD.n406 7.5
R525 VDD.n20 VDD.n16 7.5
R526 VDD.n2 VDD.n1 7.5
R527 VDD.n6 VDD.n5 7.5
R528 VDD.n11 VDD.n10 7.5
R529 VDD.n19 VDD.n18 7.5
R530 VDD.n14 VDD.n0 7.5
R531 VDD.n51 VDD.n48 6.772
R532 VDD.n62 VDD.n46 6.772
R533 VDD.n60 VDD.n57 6.772
R534 VDD.n56 VDD.n53 6.772
R535 VDD.n120 VDD.n105 6.772
R536 VDD.n118 VDD.n115 6.772
R537 VDD.n114 VDD.n111 6.772
R538 VDD.n166 VDD.n151 6.772
R539 VDD.n164 VDD.n161 6.772
R540 VDD.n160 VDD.n157 6.772
R541 VDD.n227 VDD.n212 6.772
R542 VDD.n225 VDD.n222 6.772
R543 VDD.n221 VDD.n218 6.772
R544 VDD.n273 VDD.n258 6.772
R545 VDD.n271 VDD.n268 6.772
R546 VDD.n267 VDD.n264 6.772
R547 VDD.n334 VDD.n319 6.772
R548 VDD.n332 VDD.n329 6.772
R549 VDD.n328 VDD.n325 6.772
R550 VDD.n380 VDD.n365 6.772
R551 VDD.n378 VDD.n375 6.772
R552 VDD.n374 VDD.n371 6.772
R553 VDD.n719 VDD.n704 6.772
R554 VDD.n717 VDD.n714 6.772
R555 VDD.n713 VDD.n710 6.772
R556 VDD.n661 VDD.n646 6.772
R557 VDD.n659 VDD.n656 6.772
R558 VDD.n655 VDD.n652 6.772
R559 VDD.n612 VDD.n597 6.772
R560 VDD.n610 VDD.n607 6.772
R561 VDD.n606 VDD.n603 6.772
R562 VDD.n569 VDD.n554 6.772
R563 VDD.n567 VDD.n564 6.772
R564 VDD.n563 VDD.n560 6.772
R565 VDD.n511 VDD.n496 6.772
R566 VDD.n509 VDD.n506 6.772
R567 VDD.n505 VDD.n502 6.772
R568 VDD.n405 VDD.n391 6.772
R569 VDD.n403 VDD.n400 6.772
R570 VDD.n399 VDD.n396 6.772
R571 VDD.n51 VDD.n50 6.772
R572 VDD.n56 VDD.n55 6.772
R573 VDD.n60 VDD.n59 6.772
R574 VDD.n63 VDD.n62 6.772
R575 VDD.n114 VDD.n113 6.772
R576 VDD.n118 VDD.n117 6.772
R577 VDD.n121 VDD.n120 6.772
R578 VDD.n160 VDD.n159 6.772
R579 VDD.n164 VDD.n163 6.772
R580 VDD.n167 VDD.n166 6.772
R581 VDD.n221 VDD.n220 6.772
R582 VDD.n225 VDD.n224 6.772
R583 VDD.n228 VDD.n227 6.772
R584 VDD.n267 VDD.n266 6.772
R585 VDD.n271 VDD.n270 6.772
R586 VDD.n274 VDD.n273 6.772
R587 VDD.n328 VDD.n327 6.772
R588 VDD.n332 VDD.n331 6.772
R589 VDD.n335 VDD.n334 6.772
R590 VDD.n374 VDD.n373 6.772
R591 VDD.n378 VDD.n377 6.772
R592 VDD.n381 VDD.n380 6.772
R593 VDD.n713 VDD.n712 6.772
R594 VDD.n717 VDD.n716 6.772
R595 VDD.n720 VDD.n719 6.772
R596 VDD.n655 VDD.n654 6.772
R597 VDD.n659 VDD.n658 6.772
R598 VDD.n662 VDD.n661 6.772
R599 VDD.n606 VDD.n605 6.772
R600 VDD.n610 VDD.n609 6.772
R601 VDD.n613 VDD.n612 6.772
R602 VDD.n563 VDD.n562 6.772
R603 VDD.n567 VDD.n566 6.772
R604 VDD.n570 VDD.n569 6.772
R605 VDD.n505 VDD.n504 6.772
R606 VDD.n509 VDD.n508 6.772
R607 VDD.n512 VDD.n511 6.772
R608 VDD.n399 VDD.n398 6.772
R609 VDD.n403 VDD.n402 6.772
R610 VDD.n406 VDD.n405 6.772
R611 VDD.n454 VDD.n453 6.772
R612 VDD.n441 VDD.n438 6.772
R613 VDD.n446 VDD.n443 6.772
R614 VDD.n451 VDD.n448 6.772
R615 VDD.n451 VDD.n450 6.772
R616 VDD.n446 VDD.n445 6.772
R617 VDD.n441 VDD.n440 6.772
R618 VDD.n453 VDD.n437 6.772
R619 VDD.n16 VDD.n15 6.458
R620 VDD.n109 VDD.n108 6.202
R621 VDD.n155 VDD.n154 6.202
R622 VDD.n216 VDD.n215 6.202
R623 VDD.n262 VDD.n261 6.202
R624 VDD.n323 VDD.n322 6.202
R625 VDD.n369 VDD.n368 6.202
R626 VDD.n708 VDD.n707 6.202
R627 VDD.n650 VDD.n649 6.202
R628 VDD.n601 VDD.n600 6.202
R629 VDD.n558 VDD.n557 6.202
R630 VDD.n500 VDD.n499 6.202
R631 VDD.n394 VDD.n393 6.202
R632 VDD.n93 VDD.n89 5.903
R633 VDD.n734 VDD.n730 5.903
R634 VDD.n676 VDD.n672 5.903
R635 VDD.n526 VDD.n522 5.903
R636 VDD.n468 VDD.n464 5.903
R637 VDD.n84 VDD.n83 4.576
R638 VDD.n192 VDD.n191 4.576
R639 VDD.n299 VDD.n298 4.576
R640 VDD.n737 VDD.n736 4.576
R641 VDD.n679 VDD.n678 4.576
R642 VDD.n529 VDD.n528 4.576
R643 VDD.n471 VDD.n470 4.576
R644 VDD.n204 VDD.n201 2.754
R645 VDD.n311 VDD.n308 2.754
R646 VDD.n178 VDD.n177 2.361
R647 VDD.n285 VDD.n282 2.361
R648 VDD.n28 VDD.n24 1.967
R649 VDD.n38 VDD.n37 1.967
R650 VDD.n133 VDD.n129 1.967
R651 VDD.n143 VDD.n139 1.967
R652 VDD.n240 VDD.n236 1.967
R653 VDD.n250 VDD.n249 1.967
R654 VDD.n347 VDD.n343 1.967
R655 VDD.n357 VDD.n353 1.967
R656 VDD.n635 VDD.n631 1.967
R657 VDD.n625 VDD.n624 1.967
R658 VDD.n589 VDD.n585 1.967
R659 VDD.n579 VDD.n575 1.967
R660 VDD.n426 VDD.n422 1.967
R661 VDD.n416 VDD.n415 1.967
R662 VDD.n14 VDD.n7 1.329
R663 VDD.n14 VDD.n8 1.329
R664 VDD.n14 VDD.n12 1.329
R665 VDD.n14 VDD.n13 1.329
R666 VDD.n15 VDD.n14 0.696
R667 VDD.n14 VDD.n4 0.696
R668 VDD.n61 VDD.n60 0.365
R669 VDD.n61 VDD.n56 0.365
R670 VDD.n61 VDD.n51 0.365
R671 VDD.n62 VDD.n61 0.365
R672 VDD.n119 VDD.n118 0.365
R673 VDD.n119 VDD.n114 0.365
R674 VDD.n120 VDD.n119 0.365
R675 VDD.n165 VDD.n164 0.365
R676 VDD.n165 VDD.n160 0.365
R677 VDD.n166 VDD.n165 0.365
R678 VDD.n226 VDD.n225 0.365
R679 VDD.n226 VDD.n221 0.365
R680 VDD.n227 VDD.n226 0.365
R681 VDD.n272 VDD.n271 0.365
R682 VDD.n272 VDD.n267 0.365
R683 VDD.n273 VDD.n272 0.365
R684 VDD.n333 VDD.n332 0.365
R685 VDD.n333 VDD.n328 0.365
R686 VDD.n334 VDD.n333 0.365
R687 VDD.n379 VDD.n378 0.365
R688 VDD.n379 VDD.n374 0.365
R689 VDD.n380 VDD.n379 0.365
R690 VDD.n718 VDD.n717 0.365
R691 VDD.n718 VDD.n713 0.365
R692 VDD.n719 VDD.n718 0.365
R693 VDD.n660 VDD.n659 0.365
R694 VDD.n660 VDD.n655 0.365
R695 VDD.n661 VDD.n660 0.365
R696 VDD.n611 VDD.n610 0.365
R697 VDD.n611 VDD.n606 0.365
R698 VDD.n612 VDD.n611 0.365
R699 VDD.n568 VDD.n567 0.365
R700 VDD.n568 VDD.n563 0.365
R701 VDD.n569 VDD.n568 0.365
R702 VDD.n510 VDD.n509 0.365
R703 VDD.n510 VDD.n505 0.365
R704 VDD.n511 VDD.n510 0.365
R705 VDD.n404 VDD.n403 0.365
R706 VDD.n404 VDD.n399 0.365
R707 VDD.n405 VDD.n404 0.365
R708 VDD.n452 VDD.n451 0.365
R709 VDD.n452 VDD.n446 0.365
R710 VDD.n452 VDD.n441 0.365
R711 VDD.n453 VDD.n452 0.365
R712 VDD.n70 VDD.n43 0.29
R713 VDD.n128 VDD.n102 0.29
R714 VDD.n174 VDD.n148 0.29
R715 VDD.n235 VDD.n209 0.29
R716 VDD.n281 VDD.n255 0.29
R717 VDD.n342 VDD.n316 0.29
R718 VDD.n388 VDD.n362 0.29
R719 VDD.n724 VDD.n698 0.29
R720 VDD.n666 VDD.n640 0.29
R721 VDD.n620 VDD.n594 0.29
R722 VDD.n574 VDD.n548 0.29
R723 VDD.n516 VDD.n490 0.29
R724 VDD.n458 VDD.n431 0.29
R725 VDD.n411 VDD 0.207
R726 VDD.n87 VDD.n82 0.181
R727 VDD.n195 VDD.n190 0.181
R728 VDD.n302 VDD.n297 0.181
R729 VDD.n744 VDD.n740 0.181
R730 VDD.n686 VDD.n682 0.181
R731 VDD.n536 VDD.n532 0.181
R732 VDD.n478 VDD.n474 0.181
R733 VDD.n33 VDD.n29 0.157
R734 VDD.n39 VDD.n33 0.157
R735 VDD.n138 VDD.n134 0.157
R736 VDD.n144 VDD.n138 0.157
R737 VDD.n245 VDD.n241 0.157
R738 VDD.n251 VDD.n245 0.157
R739 VDD.n352 VDD.n348 0.157
R740 VDD.n358 VDD.n352 0.157
R741 VDD.n636 VDD.n630 0.157
R742 VDD.n630 VDD.n626 0.157
R743 VDD.n590 VDD.n584 0.157
R744 VDD.n584 VDD.n580 0.157
R745 VDD.n427 VDD.n421 0.157
R746 VDD.n421 VDD.n417 0.157
R747 VDD.n43 VDD.n39 0.145
R748 VDD.n74 VDD.n70 0.145
R749 VDD.n78 VDD.n74 0.145
R750 VDD.n82 VDD.n78 0.145
R751 VDD.n94 VDD.n87 0.145
R752 VDD.n98 VDD.n94 0.145
R753 VDD.n102 VDD.n98 0.145
R754 VDD.n134 VDD.n128 0.145
R755 VDD.n148 VDD.n144 0.145
R756 VDD.n179 VDD.n174 0.145
R757 VDD.n184 VDD.n179 0.145
R758 VDD.n190 VDD.n184 0.145
R759 VDD.n200 VDD.n195 0.145
R760 VDD.n205 VDD.n200 0.145
R761 VDD.n209 VDD.n205 0.145
R762 VDD.n241 VDD.n235 0.145
R763 VDD.n255 VDD.n251 0.145
R764 VDD.n286 VDD.n281 0.145
R765 VDD.n291 VDD.n286 0.145
R766 VDD.n297 VDD.n291 0.145
R767 VDD.n307 VDD.n302 0.145
R768 VDD.n312 VDD.n307 0.145
R769 VDD.n316 VDD.n312 0.145
R770 VDD.n348 VDD.n342 0.145
R771 VDD.n362 VDD.n358 0.145
R772 VDD.n752 VDD.n748 0.145
R773 VDD.n748 VDD.n744 0.145
R774 VDD.n740 VDD.n735 0.145
R775 VDD.n735 VDD.n728 0.145
R776 VDD.n728 VDD.n724 0.145
R777 VDD.n698 VDD.n694 0.145
R778 VDD.n694 VDD.n690 0.145
R779 VDD.n690 VDD.n686 0.145
R780 VDD.n682 VDD.n677 0.145
R781 VDD.n677 VDD.n670 0.145
R782 VDD.n670 VDD.n666 0.145
R783 VDD.n640 VDD.n636 0.145
R784 VDD.n626 VDD.n620 0.145
R785 VDD.n594 VDD.n590 0.145
R786 VDD.n580 VDD.n574 0.145
R787 VDD.n548 VDD.n544 0.145
R788 VDD.n544 VDD.n540 0.145
R789 VDD.n540 VDD.n536 0.145
R790 VDD.n532 VDD.n527 0.145
R791 VDD.n527 VDD.n520 0.145
R792 VDD.n520 VDD.n516 0.145
R793 VDD.n490 VDD.n486 0.145
R794 VDD.n486 VDD.n482 0.145
R795 VDD.n482 VDD.n478 0.145
R796 VDD.n474 VDD.n469 0.145
R797 VDD.n469 VDD.n462 0.145
R798 VDD.n462 VDD.n458 0.145
R799 VDD.n431 VDD.n427 0.145
R800 VDD.n417 VDD.n411 0.145
R801 VDD VDD.n388 0.078
R802 VDD VDD.n752 0.066
R803 a_5767_1050.n0 a_5767_1050.t7 512.525
R804 a_5767_1050.n0 a_5767_1050.t5 371.139
R805 a_5767_1050.n1 a_5767_1050.t6 210.434
R806 a_5767_1050.n6 a_5767_1050.n5 184.039
R807 a_5767_1050.n8 a_5767_1050.n6 179.052
R808 a_5767_1050.n1 a_5767_1050.n0 173.2
R809 a_5767_1050.n6 a_5767_1050.n1 153.043
R810 a_5767_1050.n8 a_5767_1050.n7 76.002
R811 a_5767_1050.n5 a_5767_1050.n4 30
R812 a_5767_1050.n3 a_5767_1050.n2 24.383
R813 a_5767_1050.n5 a_5767_1050.n3 23.684
R814 a_5767_1050.n7 a_5767_1050.t0 14.282
R815 a_5767_1050.n7 a_5767_1050.t1 14.282
R816 a_5767_1050.n9 a_5767_1050.t3 14.282
R817 a_5767_1050.t4 a_5767_1050.n9 14.282
R818 a_5767_1050.n9 a_5767_1050.n8 12.848
R819 CIN.n2 CIN.t2 512.525
R820 CIN.n0 CIN.t1 480.392
R821 CIN.n5 CIN.t0 480.392
R822 CIN.n0 CIN.t5 403.272
R823 CIN.n5 CIN.t4 403.272
R824 CIN.n3 CIN.t8 372.349
R825 CIN.n2 CIN.t7 371.139
R826 CIN.n1 CIN.t6 336.586
R827 CIN.n3 CIN.t3 157.328
R828 CIN.n4 CIN.n3 132.764
R829 CIN.n6 CIN.n5 124.375
R830 CIN.n4 CIN.n2 93.541
R831 CIN.n6 CIN.n4 76
R832 CIN.n7 CIN.n1 76
R833 CIN.n1 CIN.n0 45.341
R834 CIN CIN.n6 1.269
R835 CIN.n7 CIN 0.046
R836 a_3461_1051.t2 a_3461_1051.n0 101.66
R837 a_3461_1051.n0 a_3461_1051.t0 101.659
R838 a_3461_1051.n0 a_3461_1051.t1 14.294
R839 a_3461_1051.n0 a_3461_1051.t3 14.282
R840 a_6401_209.n0 a_6401_209.t5 470.752
R841 a_6401_209.n0 a_6401_209.t3 384.527
R842 a_6401_209.n1 a_6401_209.t4 214.619
R843 a_6401_209.n7 a_6401_209.n6 184.006
R844 a_6401_209.n6 a_6401_209.n5 179.015
R845 a_6401_209.n6 a_6401_209.n1 153.859
R846 a_6401_209.n1 a_6401_209.n0 136.726
R847 a_6401_209.n5 a_6401_209.n4 30
R848 a_6401_209.n3 a_6401_209.n2 24.383
R849 a_6401_209.n5 a_6401_209.n3 23.684
R850 a_6401_209.n7 a_6401_209.t0 14.282
R851 a_6401_209.t1 a_6401_209.n7 14.282
R852 a_6791_1051.t0 a_6791_1051.n0 101.66
R853 a_6791_1051.n0 a_6791_1051.t3 101.659
R854 a_6791_1051.n0 a_6791_1051.t2 14.294
R855 a_6791_1051.n0 a_6791_1051.t1 14.282
R856 a_6858_209.n0 a_6858_209.t6 512.525
R857 a_6858_209.n0 a_6858_209.t5 371.139
R858 a_6858_209.n1 a_6858_209.t4 210.434
R859 a_6858_209.n11 a_6858_209.n10 191.888
R860 a_6858_209.n1 a_6858_209.n0 173.2
R861 a_6858_209.n10 a_6858_209.n1 153.043
R862 a_6858_209.n10 a_6858_209.n9 135.634
R863 a_6858_209.n9 a_6858_209.n8 118.016
R864 a_6858_209.n4 a_6858_209.n2 80.526
R865 a_6858_209.n9 a_6858_209.n4 48.405
R866 a_6858_209.n8 a_6858_209.n7 30
R867 a_6858_209.n4 a_6858_209.n3 30
R868 a_6858_209.n6 a_6858_209.n5 24.383
R869 a_6858_209.n8 a_6858_209.n6 23.684
R870 a_6858_209.n11 a_6858_209.t1 14.282
R871 a_6858_209.t2 a_6858_209.n11 14.282
R872 GND.n32 GND.n30 219.745
R873 GND.n276 GND.n275 219.745