* SPICE3 file created from TMRDFFQNX1.ext - technology: sky130A

.subckt TMRDFFQNX1 QN D CLK VDD GND
M1000 GND a_7469_1050.t5 a_8030_101.t0 nshort w=-1.605u l=1.765u
+  ad=3.7611p pd=32.97u as=0p ps=0u
M1001 a_599_989.t4 D.t0 VDD.t10 pshort w=2u l=0.15u
+  ad=0p pd=0u as=0p ps=0u
M1002 VDD.t81 a_10429_1050.t5 a_8731_187.t3 pshort w=2u l=0.15u
+  ad=0p pd=0u as=0p ps=0u
M1003 QN.t4 a_7595_411.t5 a_13757_1051.t6 pshort w=2u l=0.15u
+  ad=0p pd=0u as=0p ps=0u
M1004 a_10429_1050.t4 a_8731_187.t5 VDD.t70 pshort w=2u l=0.15u
+  ad=0p pd=0u as=0p ps=0u
M1005 a_7469_1050.t3 a_7595_411.t7 VDD.t74 pshort w=2u l=0.15u
+  ad=0p pd=0u as=0p ps=0u
M1006 VDD.t26 a_9183_989.t5 a_8861_1050.t4 pshort w=2u l=0.15u
+  ad=0p pd=0u as=0p ps=0u
M1007 GND a_1845_1050.t5 a_2406_101.t0 nshort w=-1.605u l=1.765u
+  ad=0p pd=0u as=0p ps=0u
M1008 a_4569_1050.t1 CLK.t0 VDD.t80 pshort w=2u l=0.15u
+  ad=0p pd=0u as=0p ps=0u
M1009 VDD.t64 a_4439_187.t5 a_6137_1050.t3 pshort w=2u l=0.15u
+  ad=0p pd=0u as=0p ps=0u
M1010 a_1845_1050.t1 a_599_989.t5 VDD.t3 pshort w=2u l=0.15u
+  ad=0p pd=0u as=0p ps=0u
M1011 VDD.t73 a_8861_1050.t7 a_9183_989.t4 pshort w=2u l=0.15u
+  ad=0p pd=0u as=0p ps=0u
M1012 a_8861_1050.t2 CLK.t1 VDD.t39 pshort w=2u l=0.15u
+  ad=0p pd=0u as=0p ps=0u
M1013 GND a_8861_1050.t8 a_9658_101.t0 nshort w=-1.605u l=1.765u
+  ad=0p pd=0u as=0p ps=0u
M1014 a_13093_1051.t3 a_11887_411.t5 VDD.t40 pshort w=2u l=0.15u
+  ad=0p pd=0u as=0p ps=0u
M1015 VDD.t14 a_147_187.t6 a_1845_1050.t3 pshort w=2u l=0.15u
+  ad=0p pd=0u as=0p ps=0u
M1016 a_6137_1050.t0 a_4891_989.t5 VDD.t0 pshort w=2u l=0.15u
+  ad=0p pd=0u as=0p ps=0u
M1017 VDD.t62 a_4569_1050.t7 a_4891_989.t4 pshort w=2u l=0.15u
+  ad=0p pd=0u as=0p ps=0u
M1018 a_13093_1051.t1 a_11887_411.t6 a_13757_1051.t7 pshort w=2u l=0.15u
+  ad=0p pd=0u as=0p ps=0u
M1019 VDD.t32 a_4439_187.t6 a_7595_411.t0 pshort w=2u l=0.15u
+  ad=0p pd=0u as=0p ps=0u
M1020 VDD.t42 a_147_187.t7 a_277_1050.t6 pshort w=2u l=0.15u
+  ad=0p pd=0u as=0p ps=0u
M1021 VDD.t27 a_6137_1050.t5 a_4439_187.t3 pshort w=2u l=0.15u
+  ad=0p pd=0u as=0p ps=0u
M1022 VDD.t69 a_8731_187.t8 a_8861_1050.t1 pshort w=2u l=0.15u
+  ad=0p pd=0u as=0p ps=0u
M1023 GND a_147_187.t8 a_91_103.t0 nshort w=-1.605u l=1.765u
+  ad=0p pd=0u as=0p ps=0u
M1024 a_3177_1050.t4 a_277_1050.t7 VDD.t18 pshort w=2u l=0.15u
+  ad=0p pd=0u as=0p ps=0u
M1025 VDD.t2 a_1845_1050.t6 a_147_187.t0 pshort w=2u l=0.15u
+  ad=0p pd=0u as=0p ps=0u
M1026 a_11887_411.t4 a_11761_1050.t5 VDD.t35 pshort w=2u l=0.15u
+  ad=0p pd=0u as=0p ps=0u
M1027 VDD.t7 D.t2 a_9183_989.t2 pshort w=2u l=0.15u
+  ad=0p pd=0u as=0p ps=0u
M1028 QN a_7595_411.t9 a_14320_101.t0 nshort w=-1.83u l=2.06u
+  ad=0.5373p pd=4.72u as=0p ps=0u
M1029 GND a_8861_1050.t9 a_11656_101.t0 nshort w=-1.605u l=1.765u
+  ad=0p pd=0u as=0p ps=0u
M1030 VDD.t12 D.t3 a_4891_989.t1 pshort w=2u l=0.15u
+  ad=0p pd=0u as=0p ps=0u
M1031 GND a_10429_1050.t6 a_10990_101.t0 nshort w=-1.605u l=1.765u
+  ad=0p pd=0u as=0p ps=0u
M1032 GND a_4439_187.t8 a_4383_103.t0 nshort w=-1.605u l=1.765u
+  ad=0p pd=0u as=0p ps=0u
M1033 VDD.t43 a_7469_1050.t6 a_7595_411.t1 pshort w=2u l=0.15u
+  ad=0p pd=0u as=0p ps=0u
M1034 VDD.t61 CLK.t2 a_277_1050.t1 pshort w=2u l=0.15u
+  ad=0p pd=0u as=0p ps=0u
M1035 a_13757_1051.t5 a_7595_411.t8 QN.t3 pshort w=2u l=0.15u
+  ad=0p pd=0u as=0p ps=0u
M1036 a_3177_1050.t1 a_3303_411.t7 VDD.t44 pshort w=2u l=0.15u
+  ad=0p pd=0u as=0p ps=0u
M1037 VDD.t21 CLK.t5 a_147_187.t4 pshort w=2u l=0.15u
+  ad=0p pd=0u as=0p ps=0u
M1038 a_11887_411.t2 a_8731_187.t10 VDD.t68 pshort w=2u l=0.15u
+  ad=0p pd=0u as=0p ps=0u
M1039 GND a_599_989.t8 a_1740_101.t0 nshort w=-1.605u l=1.765u
+  ad=0p pd=0u as=0p ps=0u
M1040 VDD.t16 a_11887_411.t7 a_11761_1050.t2 pshort w=2u l=0.15u
+  ad=0p pd=0u as=0p ps=0u
M1041 GND a_4569_1050.t9 a_5366_101.t0 nshort w=-1.605u l=1.765u
+  ad=0p pd=0u as=0p ps=0u
M1042 VDD.t38 CLK.t6 a_4439_187.t2 pshort w=2u l=0.15u
+  ad=0p pd=0u as=0p ps=0u
M1043 GND a_11887_411.t8 a_13654_101.t0 nshort w=-1.605u l=1.765u
+  ad=0p pd=0u as=0p ps=0u
M1044 a_9183_989.t1 D.t4 VDD.t9 pshort w=2u l=0.15u
+  ad=0p pd=0u as=0p ps=0u
M1045 a_3303_411.t2 a_3177_1050.t5 VDD.t37 pshort w=2u l=0.15u
+  ad=0p pd=0u as=0p ps=0u
M1046 GND a_11887_411.t10 a_12988_101.t0 nshort w=-1.605u l=1.765u
+  ad=0p pd=0u as=0p ps=0u
M1047 VDD.t33 a_599_989.t7 a_277_1050.t4 pshort w=2u l=0.15u
+  ad=0p pd=0u as=0p ps=0u
M1048 VDD.t1 a_277_1050.t8 a_599_989.t0 pshort w=2u l=0.15u
+  ad=0p pd=0u as=0p ps=0u
M1049 a_8731_187.t2 a_10429_1050.t7 VDD.t5 pshort w=2u l=0.15u
+  ad=0p pd=0u as=0p ps=0u
M1050 a_4569_1050.t2 a_4891_989.t7 VDD.t17 pshort w=2u l=0.15u
+  ad=0p pd=0u as=0p ps=0u
M1051 a_13757_1051.t3 a_3303_411.t8 QN.t2 pshort w=2u l=0.15u
+  ad=0p pd=0u as=0p ps=0u
M1052 VDD.t23 a_9183_989.t6 a_10429_1050.t0 pshort w=2u l=0.15u
+  ad=0p pd=0u as=0p ps=0u
M1053 VDD.t41 a_147_187.t9 a_3303_411.t3 pshort w=2u l=0.15u
+  ad=0p pd=0u as=0p ps=0u
M1054 a_7595_411.t3 a_7469_1050.t7 VDD.t56 pshort w=2u l=0.15u
+  ad=0p pd=0u as=0p ps=0u
M1055 VDD.t28 a_4569_1050.t8 a_7469_1050.t0 pshort w=2u l=0.15u
+  ad=0p pd=0u as=0p ps=0u
M1056 QN a_3303_411.t13 a_13654_101.t0 nshort w=-1.235u l=1.535u
+  ad=0p pd=0u as=0p ps=0u
M1057 a_4439_187.t1 CLK.t7 VDD.t60 pshort w=2u l=0.15u
+  ad=0p pd=0u as=0p ps=0u
M1058 a_1845_1050.t2 a_147_187.t10 VDD.t75 pshort w=2u l=0.15u
+  ad=0p pd=0u as=0p ps=0u
M1059 a_8861_1050.t3 a_9183_989.t7 VDD.t25 pshort w=2u l=0.15u
+  ad=0p pd=0u as=0p ps=0u
M1060 VDD.t31 a_4439_187.t10 a_4569_1050.t3 pshort w=2u l=0.15u
+  ad=0p pd=0u as=0p ps=0u
M1061 a_6137_1050.t2 a_4439_187.t11 VDD.t22 pshort w=2u l=0.15u
+  ad=0p pd=0u as=0p ps=0u
M1062 GND a_3177_1050.t6 a_3738_101.t0 nshort w=-1.605u l=1.765u
+  ad=0p pd=0u as=0p ps=0u
M1063 GND a_4569_1050.t10 a_7364_101.t0 nshort w=-1.605u l=1.765u
+  ad=0p pd=0u as=0p ps=0u
M1064 a_9183_989.t3 a_8861_1050.t10 VDD.t57 pshort w=2u l=0.15u
+  ad=0p pd=0u as=0p ps=0u
M1065 GND a_9183_989.t8 a_10324_101.t0 nshort w=-1.605u l=1.765u
+  ad=0p pd=0u as=0p ps=0u
M1066 a_13093_1051.t5 a_3303_411.t9 a_13757_1051.t2 pshort w=2u l=0.15u
+  ad=0p pd=0u as=0p ps=0u
M1067 a_11761_1050.t1 a_11887_411.t9 VDD.t51 pshort w=2u l=0.15u
+  ad=0p pd=0u as=0p ps=0u
M1068 a_3303_411.t0 a_147_187.t11 VDD.t4 pshort w=2u l=0.15u
+  ad=0p pd=0u as=0p ps=0u
M1069 VDD.t47 a_7595_411.t10 a_13093_1051.t7 pshort w=2u l=0.15u
+  ad=0p pd=0u as=0p ps=0u
M1070 VDD.t11 D.t5 a_599_989.t3 pshort w=2u l=0.15u
+  ad=0p pd=0u as=0p ps=0u
M1071 a_8731_187.t1 CLK.t9 VDD.t30 pshort w=2u l=0.15u
+  ad=0p pd=0u as=0p ps=0u
M1072 a_13757_1051.t4 a_11887_411.t11 a_13093_1051.t0 pshort w=2u l=0.15u
+  ad=0p pd=0u as=0p ps=0u
M1073 VDD.t67 a_8731_187.t11 a_10429_1050.t2 pshort w=2u l=0.15u
+  ad=0p pd=0u as=0p ps=0u
M1074 a_277_1050.t5 a_147_187.t12 VDD.t13 pshort w=2u l=0.15u
+  ad=0p pd=0u as=0p ps=0u
M1075 VDD.t55 a_7595_411.t11 a_7469_1050.t2 pshort w=2u l=0.15u
+  ad=0p pd=0u as=0p ps=0u
M1076 a_4439_187.t4 a_6137_1050.t6 VDD.t36 pshort w=2u l=0.15u
+  ad=0p pd=0u as=0p ps=0u
M1077 GND a_277_1050.t9 a_1074_101.t0 nshort w=-1.605u l=1.765u
+  ad=0p pd=0u as=0p ps=0u
M1078 VDD.t59 CLK.t12 a_4569_1050.t0 pshort w=2u l=0.15u
+  ad=0p pd=0u as=0p ps=0u
M1079 VDD.t45 a_599_989.t9 a_1845_1050.t0 pshort w=2u l=0.15u
+  ad=0p pd=0u as=0p ps=0u
M1080 a_11761_1050.t4 a_8861_1050.t11 VDD.t72 pshort w=2u l=0.15u
+  ad=0p pd=0u as=0p ps=0u
M1081 VDD.t54 a_11887_411.t12 a_13093_1051.t2 pshort w=2u l=0.15u
+  ad=0p pd=0u as=0p ps=0u
M1082 a_4891_989.t0 D.t7 VDD.t8 pshort w=2u l=0.15u
+  ad=0p pd=0u as=0p ps=0u
M1083 GND a_11761_1050.t7 a_12322_101.t0 nshort w=-1.605u l=1.765u
+  ad=0p pd=0u as=0p ps=0u
M1084 a_13757_1051.t0 a_3303_411.t10 a_13093_1051.t4 pshort w=2u l=0.15u
+  ad=0p pd=0u as=0p ps=0u
M1085 a_277_1050.t0 CLK.t13 VDD.t79 pshort w=2u l=0.15u
+  ad=0p pd=0u as=0p ps=0u
M1086 VDD.t52 a_4891_989.t8 a_4569_1050.t4 pshort w=2u l=0.15u
+  ad=0p pd=0u as=0p ps=0u
M1087 VDD.t77 a_277_1050.t10 a_3177_1050.t3 pshort w=2u l=0.15u
+  ad=0p pd=0u as=0p ps=0u
M1088 a_147_187.t2 CLK.t15 VDD.t20 pshort w=2u l=0.15u
+  ad=0p pd=0u as=0p ps=0u
M1089 VDD.t29 a_11761_1050.t6 a_11887_411.t0 pshort w=2u l=0.15u
+  ad=0p pd=0u as=0p ps=0u
M1090 GND a_6137_1050.t7 a_6698_101.t0 nshort w=-1.605u l=1.765u
+  ad=0p pd=0u as=0p ps=0u
M1091 QN a_7595_411.t12 a_12988_101.t1 nshort w=-1.605u l=1.765u
+  ad=0p pd=0u as=0p ps=0u
M1092 GND a_277_1050.t12 a_3072_101.t0 nshort w=-1.605u l=1.765u
+  ad=0p pd=0u as=0p ps=0u
M1093 a_4891_989.t3 a_4569_1050.t11 VDD.t53 pshort w=2u l=0.15u
+  ad=0p pd=0u as=0p ps=0u
M1094 a_7595_411.t2 a_4439_187.t12 VDD.t50 pshort w=2u l=0.15u
+  ad=0p pd=0u as=0p ps=0u
M1095 GND a_4891_989.t10 a_6032_101.t0 nshort w=-1.605u l=1.765u
+  ad=0p pd=0u as=0p ps=0u
M1096 a_277_1050.t3 a_599_989.t10 VDD.t71 pshort w=2u l=0.15u
+  ad=0p pd=0u as=0p ps=0u
M1097 a_599_989.t1 a_277_1050.t11 VDD.t6 pshort w=2u l=0.15u
+  ad=0p pd=0u as=0p ps=0u
M1098 GND a_3303_411.t5 a_14320_101.t0 nshort w=-1.605u l=1.765u
+  ad=0p pd=0u as=0p ps=0u
M1099 QN.t1 a_3303_411.t11 a_13757_1051.t1 pshort w=2u l=0.15u
+  ad=0p pd=0u as=0p ps=0u
M1100 a_8861_1050.t0 a_8731_187.t12 VDD.t66 pshort w=2u l=0.15u
+  ad=0p pd=0u as=0p ps=0u
M1101 VDD.t48 CLK.t16 a_8731_187.t4 pshort w=2u l=0.15u
+  ad=0p pd=0u as=0p ps=0u
M1102 a_10429_1050.t1 a_9183_989.t10 VDD.t24 pshort w=2u l=0.15u
+  ad=0p pd=0u as=0p ps=0u
M1103 a_7469_1050.t4 a_4569_1050.t12 VDD.t49 pshort w=2u l=0.15u
+  ad=0p pd=0u as=0p ps=0u
M1104 a_147_187.t1 a_1845_1050.t7 VDD.t19 pshort w=2u l=0.15u
+  ad=0p pd=0u as=0p ps=0u
M1105 VDD.t46 a_3303_411.t12 a_3177_1050.t0 pshort w=2u l=0.15u
+  ad=0p pd=0u as=0p ps=0u
M1106 VDD.t65 a_8731_187.t13 a_11887_411.t1 pshort w=2u l=0.15u
+  ad=0p pd=0u as=0p ps=0u
M1107 VDD.t58 CLK.t17 a_8861_1050.t6 pshort w=2u l=0.15u
+  ad=0p pd=0u as=0p ps=0u
M1108 a_4569_1050.t5 a_4439_187.t13 VDD.t63 pshort w=2u l=0.15u
+  ad=0p pd=0u as=0p ps=0u
M1109 VDD.t76 a_4891_989.t9 a_6137_1050.t4 pshort w=2u l=0.15u
+  ad=0p pd=0u as=0p ps=0u
M1110 VDD.t15 a_8861_1050.t12 a_11761_1050.t3 pshort w=2u l=0.15u
+  ad=0p pd=0u as=0p ps=0u
M1111 GND a_8731_187.t7 a_8675_103.t0 nshort w=-1.605u l=1.765u
+  ad=0p pd=0u as=0p ps=0u
M1112 VDD.t78 a_3177_1050.t7 a_3303_411.t4 pshort w=2u l=0.15u
+  ad=0p pd=0u as=0p ps=0u
M1113 a_13093_1051.t6 a_7595_411.t13 VDD.t34 pshort w=2u l=0.15u
+  ad=0p pd=0u as=0p ps=0u
C0 VDD CLK 1.74fF
C1 VDD D 0.22fF
C2 VDD QN 0.29fF
C3 CLK D 0.45fF
R0 D.n5 D.t5 472.359
R1 D.n2 D.t3 472.359
R2 D.n0 D.t2 472.359
R3 D.n5 D.t0 384.527
R4 D.n2 D.t7 384.527
R5 D.n0 D.t4 384.527
R6 D.n6 D.n5 216.272
R7 D.n3 D.n2 216.272
R8 D.n1 D.n0 216.272
R9 D.n6 D.t1 141.114
R10 D.n3 D.t8 141.114
R11 D.n1 D.t6 141.114
R12 D.n4 D.n1 91.734
R13 D.n4 D.n3 76
R14 D.n7 D.n6 76
R15 D.n7 D.n4 15.734
R16 D.n7 D 0.046
R17 VDD.n769 VDD.n767 144.705
R18 VDD.n830 VDD.n828 144.705
R19 VDD.n891 VDD.n889 144.705
R20 VDD.n952 VDD.n950 144.705
R21 VDD.n1013 VDD.n1011 144.705
R22 VDD.n1074 VDD.n1072 144.705
R23 VDD.n1155 VDD.n1153 144.705
R24 VDD.n1216 VDD.n1214 144.705
R25 VDD.n1277 VDD.n1275 144.705
R26 VDD.n638 VDD.n636 144.705
R27 VDD.n1338 VDD.n1336 144.705
R28 VDD.n577 VDD.n575 144.705
R29 VDD.n496 VDD.n494 144.705
R30 VDD.n435 VDD.n433 144.705
R31 VDD.n374 VDD.n372 144.705
R32 VDD.n313 VDD.n311 144.705
R33 VDD.n252 VDD.n250 144.705
R34 VDD.n191 VDD.n189 144.705
R35 VDD.n130 VDD.n128 144.705
R36 VDD.n76 VDD.n74 144.705
R37 VDD.n39 VDD.n38 76
R38 VDD.n43 VDD.n42 76
R39 VDD.n47 VDD.n46 76
R40 VDD.n51 VDD.n50 76
R41 VDD.n78 VDD.n77 76
R42 VDD.n82 VDD.n81 76
R43 VDD.n86 VDD.n85 76
R44 VDD.n90 VDD.n89 76
R45 VDD.n94 VDD.n93 76
R46 VDD.n98 VDD.n97 76
R47 VDD.n102 VDD.n101 76
R48 VDD.n106 VDD.n105 76
R49 VDD.n132 VDD.n131 76
R50 VDD.n137 VDD.n136 76
R51 VDD.n142 VDD.n141 76
R52 VDD.n148 VDD.n147 76
R53 VDD.n153 VDD.n152 76
R54 VDD.n158 VDD.n157 76
R55 VDD.n163 VDD.n162 76
R56 VDD.n167 VDD.n166 76
R57 VDD.n193 VDD.n192 76
R58 VDD.n198 VDD.n197 76
R59 VDD.n203 VDD.n202 76
R60 VDD.n209 VDD.n208 76
R61 VDD.n214 VDD.n213 76
R62 VDD.n219 VDD.n218 76
R63 VDD.n224 VDD.n223 76
R64 VDD.n228 VDD.n227 76
R65 VDD.n254 VDD.n253 76
R66 VDD.n259 VDD.n258 76
R67 VDD.n264 VDD.n263 76
R68 VDD.n270 VDD.n269 76
R69 VDD.n275 VDD.n274 76
R70 VDD.n280 VDD.n279 76
R71 VDD.n285 VDD.n284 76
R72 VDD.n289 VDD.n288 76
R73 VDD.n315 VDD.n314 76
R74 VDD.n320 VDD.n319 76
R75 VDD.n325 VDD.n324 76
R76 VDD.n331 VDD.n330 76
R77 VDD.n336 VDD.n335 76
R78 VDD.n341 VDD.n340 76
R79 VDD.n346 VDD.n345 76
R80 VDD.n350 VDD.n349 76
R81 VDD.n376 VDD.n375 76
R82 VDD.n381 VDD.n380 76
R83 VDD.n386 VDD.n385 76
R84 VDD.n392 VDD.n391 76
R85 VDD.n397 VDD.n396 76
R86 VDD.n402 VDD.n401 76
R87 VDD.n407 VDD.n406 76
R88 VDD.n411 VDD.n410 76
R89 VDD.n437 VDD.n436 76
R90 VDD.n442 VDD.n441 76
R91 VDD.n447 VDD.n446 76
R92 VDD.n453 VDD.n452 76
R93 VDD.n458 VDD.n457 76
R94 VDD.n463 VDD.n462 76
R95 VDD.n468 VDD.n467 76
R96 VDD.n472 VDD.n471 76
R97 VDD.n498 VDD.n497 76
R98 VDD.n502 VDD.n501 76
R99 VDD.n506 VDD.n505 76
R100 VDD.n511 VDD.n510 76
R101 VDD.n518 VDD.n517 76
R102 VDD.n523 VDD.n522 76
R103 VDD.n528 VDD.n527 76
R104 VDD.n535 VDD.n534 76
R105 VDD.n540 VDD.n539 76
R106 VDD.n545 VDD.n544 76
R107 VDD.n549 VDD.n548 76
R108 VDD.n553 VDD.n552 76
R109 VDD.n579 VDD.n578 76
R110 VDD.n584 VDD.n583 76
R111 VDD.n589 VDD.n588 76
R112 VDD.n595 VDD.n594 76
R113 VDD.n600 VDD.n599 76
R114 VDD.n605 VDD.n604 76
R115 VDD.n610 VDD.n609 76
R116 VDD.n614 VDD.n613 76
R117 VDD.n640 VDD.n639 76
R118 VDD.n645 VDD.n644 76
R119 VDD.n650 VDD.n649 76
R120 VDD.n656 VDD.n655 76
R121 VDD.n661 VDD.n660 76
R122 VDD.n666 VDD.n665 76
R123 VDD.n1345 VDD.n1344 76
R124 VDD.n1340 VDD.n1339 76
R125 VDD.n1314 VDD.n1313 76
R126 VDD.n1310 VDD.n1309 76
R127 VDD.n1305 VDD.n1304 76
R128 VDD.n1300 VDD.n1299 76
R129 VDD.n1294 VDD.n1293 76
R130 VDD.n1289 VDD.n1288 76
R131 VDD.n1284 VDD.n1283 76
R132 VDD.n1279 VDD.n1278 76
R133 VDD.n1253 VDD.n1252 76
R134 VDD.n1249 VDD.n1248 76
R135 VDD.n1244 VDD.n1243 76
R136 VDD.n1239 VDD.n1238 76
R137 VDD.n1233 VDD.n1232 76
R138 VDD.n1228 VDD.n1227 76
R139 VDD.n1223 VDD.n1222 76
R140 VDD.n1218 VDD.n1217 76
R141 VDD.n1192 VDD.n1191 76
R142 VDD.n1188 VDD.n1187 76
R143 VDD.n1183 VDD.n1182 76
R144 VDD.n1178 VDD.n1177 76
R145 VDD.n1172 VDD.n1171 76
R146 VDD.n1167 VDD.n1166 76
R147 VDD.n1162 VDD.n1161 76
R148 VDD.n1157 VDD.n1156 76
R149 VDD.n1131 VDD.n1130 76
R150 VDD.n1127 VDD.n1126 76
R151 VDD.n1123 VDD.n1122 76
R152 VDD.n1119 VDD.n1118 76
R153 VDD.n1114 VDD.n1113 76
R154 VDD.n1107 VDD.n1106 76
R155 VDD.n1102 VDD.n1101 76
R156 VDD.n1097 VDD.n1096 76
R157 VDD.n1090 VDD.n1089 76
R158 VDD.n1085 VDD.n1084 76
R159 VDD.n1080 VDD.n1079 76
R160 VDD.n1076 VDD.n1075 76
R161 VDD.n1050 VDD.n1049 76
R162 VDD.n1046 VDD.n1045 76
R163 VDD.n1041 VDD.n1040 76
R164 VDD.n1036 VDD.n1035 76
R165 VDD.n1030 VDD.n1029 76
R166 VDD.n1025 VDD.n1024 76
R167 VDD.n1020 VDD.n1019 76
R168 VDD.n1015 VDD.n1014 76
R169 VDD.n989 VDD.n988 76
R170 VDD.n985 VDD.n984 76
R171 VDD.n980 VDD.n979 76
R172 VDD.n975 VDD.n974 76
R173 VDD.n969 VDD.n968 76
R174 VDD.n964 VDD.n963 76
R175 VDD.n959 VDD.n958 76
R176 VDD.n954 VDD.n953 76
R177 VDD.n928 VDD.n927 76
R178 VDD.n924 VDD.n923 76
R179 VDD.n919 VDD.n918 76
R180 VDD.n914 VDD.n913 76
R181 VDD.n908 VDD.n907 76
R182 VDD.n903 VDD.n902 76
R183 VDD.n898 VDD.n897 76
R184 VDD.n893 VDD.n892 76
R185 VDD.n867 VDD.n866 76
R186 VDD.n863 VDD.n862 76
R187 VDD.n858 VDD.n857 76
R188 VDD.n853 VDD.n852 76
R189 VDD.n847 VDD.n846 76
R190 VDD.n842 VDD.n841 76
R191 VDD.n837 VDD.n836 76
R192 VDD.n832 VDD.n831 76
R193 VDD.n806 VDD.n805 76
R194 VDD.n802 VDD.n801 76
R195 VDD.n797 VDD.n796 76
R196 VDD.n792 VDD.n791 76
R197 VDD.n786 VDD.n785 76
R198 VDD.n781 VDD.n780 76
R199 VDD.n776 VDD.n775 76
R200 VDD.n771 VDD.n770 76
R201 VDD.n744 VDD.n743 76
R202 VDD.n740 VDD.n739 76
R203 VDD.n736 VDD.n735 76
R204 VDD.n732 VDD.n731 76
R205 VDD.n727 VDD.n726 76
R206 VDD.n720 VDD.n719 76
R207 VDD.n715 VDD.n714 76
R208 VDD.n710 VDD.n709 76
R209 VDD.n703 VDD.n702 76
R210 VDD.n698 VDD.n697 76
R211 VDD.n693 VDD.n692 76
R212 VDD.n689 VDD.n688 76
R213 VDD.n508 VDD.n507 64.064
R214 VDD.n1116 VDD.n1115 64.064
R215 VDD.n729 VDD.n728 64.064
R216 VDD.n537 VDD.n536 59.488
R217 VDD.n1087 VDD.n1086 59.488
R218 VDD.n700 VDD.n699 59.488
R219 VDD.n159 VDD.t40 55.465
R220 VDD.n133 VDD.t47 55.465
R221 VDD.n694 VDD.t13 55.106
R222 VDD.n772 VDD.t6 55.106
R223 VDD.n833 VDD.t3 55.106
R224 VDD.n894 VDD.t19 55.106
R225 VDD.n955 VDD.t18 55.106
R226 VDD.n1016 VDD.t37 55.106
R227 VDD.n1081 VDD.t63 55.106
R228 VDD.n1158 VDD.t53 55.106
R229 VDD.n1219 VDD.t0 55.106
R230 VDD.n1280 VDD.t36 55.106
R231 VDD.n1341 VDD.t49 55.106
R232 VDD.n606 VDD.t56 55.106
R233 VDD.n541 VDD.t66 55.106
R234 VDD.n464 VDD.t57 55.106
R235 VDD.n403 VDD.t24 55.106
R236 VDD.n342 VDD.t5 55.106
R237 VDD.n281 VDD.t72 55.106
R238 VDD.n220 VDD.t35 55.106
R239 VDD.n735 VDD.t33 55.106
R240 VDD.n1122 VDD.t52 55.106
R241 VDD.n505 VDD.t26 55.106
R242 VDD.n798 VDD.t11 55.106
R243 VDD.n859 VDD.t14 55.106
R244 VDD.n920 VDD.t21 55.106
R245 VDD.n981 VDD.t46 55.106
R246 VDD.n1042 VDD.t41 55.106
R247 VDD.n1184 VDD.t12 55.106
R248 VDD.n1245 VDD.t64 55.106
R249 VDD.n1306 VDD.t38 55.106
R250 VDD.n641 VDD.t55 55.106
R251 VDD.n580 VDD.t32 55.106
R252 VDD.n438 VDD.t7 55.106
R253 VDD.n377 VDD.t67 55.106
R254 VDD.n316 VDD.t48 55.106
R255 VDD.n255 VDD.t16 55.106
R256 VDD.n194 VDD.t65 55.106
R257 VDD.n144 VDD.n143 41.183
R258 VDD.n705 VDD.n704 40.824
R259 VDD.n725 VDD.n724 40.824
R260 VDD.n788 VDD.n787 40.824
R261 VDD.n849 VDD.n848 40.824
R262 VDD.n910 VDD.n909 40.824
R263 VDD.n971 VDD.n970 40.824
R264 VDD.n1032 VDD.n1031 40.824
R265 VDD.n1092 VDD.n1091 40.824
R266 VDD.n1112 VDD.n1111 40.824
R267 VDD.n1174 VDD.n1173 40.824
R268 VDD.n1235 VDD.n1234 40.824
R269 VDD.n1296 VDD.n1295 40.824
R270 VDD.n652 VDD.n651 40.824
R271 VDD.n591 VDD.n590 40.824
R272 VDD.n530 VDD.n529 40.824
R273 VDD.n516 VDD.n515 40.824
R274 VDD.n449 VDD.n448 40.824
R275 VDD.n388 VDD.n387 40.824
R276 VDD.n327 VDD.n326 40.824
R277 VDD.n266 VDD.n265 40.824
R278 VDD.n205 VDD.n204 40.824
R279 VDD.n811 VDD.n810 36.774
R280 VDD.n872 VDD.n871 36.774
R281 VDD.n933 VDD.n932 36.774
R282 VDD.n994 VDD.n993 36.774
R283 VDD.n1055 VDD.n1054 36.774
R284 VDD.n1136 VDD.n1135 36.774
R285 VDD.n1197 VDD.n1196 36.774
R286 VDD.n1258 VDD.n1257 36.774
R287 VDD.n1319 VDD.n1318 36.774
R288 VDD.n619 VDD.n618 36.774
R289 VDD.n558 VDD.n557 36.774
R290 VDD.n477 VDD.n476 36.774
R291 VDD.n416 VDD.n415 36.774
R292 VDD.n355 VDD.n354 36.774
R293 VDD.n294 VDD.n293 36.774
R294 VDD.n233 VDD.n232 36.774
R295 VDD.n172 VDD.n171 36.774
R296 VDD.n111 VDD.n110 36.774
R297 VDD.n56 VDD.n55 36.774
R298 VDD.n760 VDD.n759 36.774
R299 VDD.n139 VDD.n138 36.608
R300 VDD.n200 VDD.n199 36.608
R301 VDD.n261 VDD.n260 36.608
R302 VDD.n322 VDD.n321 36.608
R303 VDD.n383 VDD.n382 36.608
R304 VDD.n444 VDD.n443 36.608
R305 VDD.n586 VDD.n585 36.608
R306 VDD.n647 VDD.n646 36.608
R307 VDD.n1302 VDD.n1301 36.608
R308 VDD.n1241 VDD.n1240 36.608
R309 VDD.n1180 VDD.n1179 36.608
R310 VDD.n1038 VDD.n1037 36.608
R311 VDD.n977 VDD.n976 36.608
R312 VDD.n916 VDD.n915 36.608
R313 VDD.n855 VDD.n854 36.608
R314 VDD.n794 VDD.n793 36.608
R315 VDD.n34 VDD.n33 34.942
R316 VDD.n155 VDD.n154 32.032
R317 VDD.n216 VDD.n215 32.032
R318 VDD.n277 VDD.n276 32.032
R319 VDD.n338 VDD.n337 32.032
R320 VDD.n399 VDD.n398 32.032
R321 VDD.n460 VDD.n459 32.032
R322 VDD.n602 VDD.n601 32.032
R323 VDD.n663 VDD.n662 32.032
R324 VDD.n1286 VDD.n1285 32.032
R325 VDD.n1225 VDD.n1224 32.032
R326 VDD.n1164 VDD.n1163 32.032
R327 VDD.n1022 VDD.n1021 32.032
R328 VDD.n961 VDD.n960 32.032
R329 VDD.n900 VDD.n899 32.032
R330 VDD.n839 VDD.n838 32.032
R331 VDD.n778 VDD.n777 32.032
R332 VDD.n513 VDD.n512 27.456
R333 VDD.n1109 VDD.n1108 27.456
R334 VDD.n722 VDD.n721 27.456
R335 VDD.n532 VDD.n531 22.88
R336 VDD.n1094 VDD.n1093 22.88
R337 VDD.n707 VDD.n706 22.88
R338 VDD.n688 VDD.n685 21.841
R339 VDD.n23 VDD.n20 21.841
R340 VDD.n704 VDD.t79 14.282
R341 VDD.n704 VDD.t42 14.282
R342 VDD.n724 VDD.t71 14.282
R343 VDD.n724 VDD.t61 14.282
R344 VDD.n787 VDD.t10 14.282
R345 VDD.n787 VDD.t1 14.282
R346 VDD.n848 VDD.t75 14.282
R347 VDD.n848 VDD.t45 14.282
R348 VDD.n909 VDD.t20 14.282
R349 VDD.n909 VDD.t2 14.282
R350 VDD.n970 VDD.t44 14.282
R351 VDD.n970 VDD.t77 14.282
R352 VDD.n1031 VDD.t4 14.282
R353 VDD.n1031 VDD.t78 14.282
R354 VDD.n1091 VDD.t80 14.282
R355 VDD.n1091 VDD.t31 14.282
R356 VDD.n1111 VDD.t17 14.282
R357 VDD.n1111 VDD.t59 14.282
R358 VDD.n1173 VDD.t8 14.282
R359 VDD.n1173 VDD.t62 14.282
R360 VDD.n1234 VDD.t22 14.282
R361 VDD.n1234 VDD.t76 14.282
R362 VDD.n1295 VDD.t60 14.282
R363 VDD.n1295 VDD.t27 14.282
R364 VDD.n651 VDD.t74 14.282
R365 VDD.n651 VDD.t28 14.282
R366 VDD.n590 VDD.t50 14.282
R367 VDD.n590 VDD.t43 14.282
R368 VDD.n529 VDD.t39 14.282
R369 VDD.n529 VDD.t69 14.282
R370 VDD.n515 VDD.t25 14.282
R371 VDD.n515 VDD.t58 14.282
R372 VDD.n448 VDD.t9 14.282
R373 VDD.n448 VDD.t73 14.282
R374 VDD.n387 VDD.t70 14.282
R375 VDD.n387 VDD.t23 14.282
R376 VDD.n326 VDD.t30 14.282
R377 VDD.n326 VDD.t81 14.282
R378 VDD.n265 VDD.t51 14.282
R379 VDD.n265 VDD.t15 14.282
R380 VDD.n204 VDD.t68 14.282
R381 VDD.n204 VDD.t29 14.282
R382 VDD.n143 VDD.t34 14.282
R383 VDD.n143 VDD.t54 14.282
R384 VDD.n685 VDD.n668 14.167
R385 VDD.n668 VDD.n667 14.167
R386 VDD.n826 VDD.n808 14.167
R387 VDD.n808 VDD.n807 14.167
R388 VDD.n887 VDD.n869 14.167
R389 VDD.n869 VDD.n868 14.167
R390 VDD.n948 VDD.n930 14.167
R391 VDD.n930 VDD.n929 14.167
R392 VDD.n1009 VDD.n991 14.167
R393 VDD.n991 VDD.n990 14.167
R394 VDD.n1070 VDD.n1052 14.167
R395 VDD.n1052 VDD.n1051 14.167
R396 VDD.n1151 VDD.n1133 14.167
R397 VDD.n1133 VDD.n1132 14.167
R398 VDD.n1212 VDD.n1194 14.167
R399 VDD.n1194 VDD.n1193 14.167
R400 VDD.n1273 VDD.n1255 14.167
R401 VDD.n1255 VDD.n1254 14.167
R402 VDD.n1334 VDD.n1316 14.167
R403 VDD.n1316 VDD.n1315 14.167
R404 VDD.n634 VDD.n616 14.167
R405 VDD.n616 VDD.n615 14.167
R406 VDD.n573 VDD.n555 14.167
R407 VDD.n555 VDD.n554 14.167
R408 VDD.n492 VDD.n474 14.167
R409 VDD.n474 VDD.n473 14.167
R410 VDD.n431 VDD.n413 14.167
R411 VDD.n413 VDD.n412 14.167
R412 VDD.n370 VDD.n352 14.167
R413 VDD.n352 VDD.n351 14.167
R414 VDD.n309 VDD.n291 14.167
R415 VDD.n291 VDD.n290 14.167
R416 VDD.n248 VDD.n230 14.167
R417 VDD.n230 VDD.n229 14.167
R418 VDD.n187 VDD.n169 14.167
R419 VDD.n169 VDD.n168 14.167
R420 VDD.n126 VDD.n108 14.167
R421 VDD.n108 VDD.n107 14.167
R422 VDD.n72 VDD.n53 14.167
R423 VDD.n53 VDD.n52 14.167
R424 VDD.n765 VDD.n746 14.167
R425 VDD.n746 VDD.n745 14.167
R426 VDD.n20 VDD.n19 14.167
R427 VDD.n19 VDD.n17 14.167
R428 VDD.n32 VDD.n29 14.167
R429 VDD.n29 VDD.n28 14.167
R430 VDD.n77 VDD.n73 14.167
R431 VDD.n131 VDD.n127 14.167
R432 VDD.n192 VDD.n188 14.167
R433 VDD.n253 VDD.n249 14.167
R434 VDD.n314 VDD.n310 14.167
R435 VDD.n375 VDD.n371 14.167
R436 VDD.n436 VDD.n432 14.167
R437 VDD.n497 VDD.n493 14.167
R438 VDD.n578 VDD.n574 14.167
R439 VDD.n639 VDD.n635 14.167
R440 VDD.n1339 VDD.n1335 14.167
R441 VDD.n1278 VDD.n1274 14.167
R442 VDD.n1217 VDD.n1213 14.167
R443 VDD.n1156 VDD.n1152 14.167
R444 VDD.n1075 VDD.n1071 14.167
R445 VDD.n1014 VDD.n1010 14.167
R446 VDD.n953 VDD.n949 14.167
R447 VDD.n892 VDD.n888 14.167
R448 VDD.n831 VDD.n827 14.167
R449 VDD.n770 VDD.n766 14.167
R450 VDD.n525 VDD.n524 13.728
R451 VDD.n1099 VDD.n1098 13.728
R452 VDD.n712 VDD.n711 13.728
R453 VDD.n23 VDD.n22 13.653
R454 VDD.n22 VDD.n21 13.653
R455 VDD.n32 VDD.n31 13.653
R456 VDD.n31 VDD.n30 13.653
R457 VDD.n29 VDD.n25 13.653
R458 VDD.n25 VDD.n24 13.653
R459 VDD.n28 VDD.n27 13.653
R460 VDD.n27 VDD.n26 13.653
R461 VDD.n38 VDD.n37 13.653
R462 VDD.n37 VDD.n36 13.653
R463 VDD.n42 VDD.n41 13.653
R464 VDD.n41 VDD.n40 13.653
R465 VDD.n46 VDD.n45 13.653
R466 VDD.n45 VDD.n44 13.653
R467 VDD.n50 VDD.n49 13.653
R468 VDD.n49 VDD.n48 13.653
R469 VDD.n77 VDD.n76 13.653
R470 VDD.n76 VDD.n75 13.653
R471 VDD.n81 VDD.n80 13.653
R472 VDD.n80 VDD.n79 13.653
R473 VDD.n85 VDD.n84 13.653
R474 VDD.n84 VDD.n83 13.653
R475 VDD.n89 VDD.n88 13.653
R476 VDD.n88 VDD.n87 13.653
R477 VDD.n93 VDD.n92 13.653
R478 VDD.n92 VDD.n91 13.653
R479 VDD.n97 VDD.n96 13.653
R480 VDD.n96 VDD.n95 13.653
R481 VDD.n101 VDD.n100 13.653
R482 VDD.n100 VDD.n99 13.653
R483 VDD.n105 VDD.n104 13.653
R484 VDD.n104 VDD.n103 13.653
R485 VDD.n131 VDD.n130 13.653
R486 VDD.n130 VDD.n129 13.653
R487 VDD.n136 VDD.n135 13.653
R488 VDD.n135 VDD.n134 13.653
R489 VDD.n141 VDD.n140 13.653
R490 VDD.n140 VDD.n139 13.653
R491 VDD.n147 VDD.n146 13.653
R492 VDD.n146 VDD.n145 13.653
R493 VDD.n152 VDD.n151 13.653
R494 VDD.n151 VDD.n150 13.653
R495 VDD.n157 VDD.n156 13.653
R496 VDD.n156 VDD.n155 13.653
R497 VDD.n162 VDD.n161 13.653
R498 VDD.n161 VDD.n160 13.653
R499 VDD.n166 VDD.n165 13.653
R500 VDD.n165 VDD.n164 13.653
R501 VDD.n192 VDD.n191 13.653
R502 VDD.n191 VDD.n190 13.653
R503 VDD.n197 VDD.n196 13.653
R504 VDD.n196 VDD.n195 13.653
R505 VDD.n202 VDD.n201 13.653
R506 VDD.n201 VDD.n200 13.653
R507 VDD.n208 VDD.n207 13.653
R508 VDD.n207 VDD.n206 13.653
R509 VDD.n213 VDD.n212 13.653
R510 VDD.n212 VDD.n211 13.653
R511 VDD.n218 VDD.n217 13.653
R512 VDD.n217 VDD.n216 13.653
R513 VDD.n223 VDD.n222 13.653
R514 VDD.n222 VDD.n221 13.653
R515 VDD.n227 VDD.n226 13.653
R516 VDD.n226 VDD.n225 13.653
R517 VDD.n253 VDD.n252 13.653
R518 VDD.n252 VDD.n251 13.653
R519 VDD.n258 VDD.n257 13.653
R520 VDD.n257 VDD.n256 13.653
R521 VDD.n263 VDD.n262 13.653
R522 VDD.n262 VDD.n261 13.653
R523 VDD.n269 VDD.n268 13.653
R524 VDD.n268 VDD.n267 13.653
R525 VDD.n274 VDD.n273 13.653
R526 VDD.n273 VDD.n272 13.653
R527 VDD.n279 VDD.n278 13.653
R528 VDD.n278 VDD.n277 13.653
R529 VDD.n284 VDD.n283 13.653
R530 VDD.n283 VDD.n282 13.653
R531 VDD.n288 VDD.n287 13.653
R532 VDD.n287 VDD.n286 13.653
R533 VDD.n314 VDD.n313 13.653
R534 VDD.n313 VDD.n312 13.653
R535 VDD.n319 VDD.n318 13.653
R536 VDD.n318 VDD.n317 13.653
R537 VDD.n324 VDD.n323 13.653
R538 VDD.n323 VDD.n322 13.653
R539 VDD.n330 VDD.n329 13.653
R540 VDD.n329 VDD.n328 13.653
R541 VDD.n335 VDD.n334 13.653
R542 VDD.n334 VDD.n333 13.653
R543 VDD.n340 VDD.n339 13.653
R544 VDD.n339 VDD.n338 13.653
R545 VDD.n345 VDD.n344 13.653
R546 VDD.n344 VDD.n343 13.653
R547 VDD.n349 VDD.n348 13.653
R548 VDD.n348 VDD.n347 13.653
R549 VDD.n375 VDD.n374 13.653
R550 VDD.n374 VDD.n373 13.653
R551 VDD.n380 VDD.n379 13.653
R552 VDD.n379 VDD.n378 13.653
R553 VDD.n385 VDD.n384 13.653
R554 VDD.n384 VDD.n383 13.653
R555 VDD.n391 VDD.n390 13.653
R556 VDD.n390 VDD.n389 13.653
R557 VDD.n396 VDD.n395 13.653
R558 VDD.n395 VDD.n394 13.653
R559 VDD.n401 VDD.n400 13.653
R560 VDD.n400 VDD.n399 13.653
R561 VDD.n406 VDD.n405 13.653
R562 VDD.n405 VDD.n404 13.653
R563 VDD.n410 VDD.n409 13.653
R564 VDD.n409 VDD.n408 13.653
R565 VDD.n436 VDD.n435 13.653
R566 VDD.n435 VDD.n434 13.653
R567 VDD.n441 VDD.n440 13.653
R568 VDD.n440 VDD.n439 13.653
R569 VDD.n446 VDD.n445 13.653
R570 VDD.n445 VDD.n444 13.653
R571 VDD.n452 VDD.n451 13.653
R572 VDD.n451 VDD.n450 13.653
R573 VDD.n457 VDD.n456 13.653
R574 VDD.n456 VDD.n455 13.653
R575 VDD.n462 VDD.n461 13.653
R576 VDD.n461 VDD.n460 13.653
R577 VDD.n467 VDD.n466 13.653
R578 VDD.n466 VDD.n465 13.653
R579 VDD.n471 VDD.n470 13.653
R580 VDD.n470 VDD.n469 13.653
R581 VDD.n497 VDD.n496 13.653
R582 VDD.n496 VDD.n495 13.653
R583 VDD.n501 VDD.n500 13.653
R584 VDD.n500 VDD.n499 13.653
R585 VDD.n505 VDD.n504 13.653
R586 VDD.n504 VDD.n503 13.653
R587 VDD.n510 VDD.n509 13.653
R588 VDD.n509 VDD.n508 13.653
R589 VDD.n517 VDD.n514 13.653
R590 VDD.n514 VDD.n513 13.653
R591 VDD.n522 VDD.n521 13.653
R592 VDD.n521 VDD.n520 13.653
R593 VDD.n527 VDD.n526 13.653
R594 VDD.n526 VDD.n525 13.653
R595 VDD.n534 VDD.n533 13.653
R596 VDD.n533 VDD.n532 13.653
R597 VDD.n539 VDD.n538 13.653
R598 VDD.n538 VDD.n537 13.653
R599 VDD.n544 VDD.n543 13.653
R600 VDD.n543 VDD.n542 13.653
R601 VDD.n548 VDD.n547 13.653
R602 VDD.n547 VDD.n546 13.653
R603 VDD.n552 VDD.n551 13.653
R604 VDD.n551 VDD.n550 13.653
R605 VDD.n578 VDD.n577 13.653
R606 VDD.n577 VDD.n576 13.653
R607 VDD.n583 VDD.n582 13.653
R608 VDD.n582 VDD.n581 13.653
R609 VDD.n588 VDD.n587 13.653
R610 VDD.n587 VDD.n586 13.653
R611 VDD.n594 VDD.n593 13.653
R612 VDD.n593 VDD.n592 13.653
R613 VDD.n599 VDD.n598 13.653
R614 VDD.n598 VDD.n597 13.653
R615 VDD.n604 VDD.n603 13.653
R616 VDD.n603 VDD.n602 13.653
R617 VDD.n609 VDD.n608 13.653
R618 VDD.n608 VDD.n607 13.653
R619 VDD.n613 VDD.n612 13.653
R620 VDD.n612 VDD.n611 13.653
R621 VDD.n639 VDD.n638 13.653
R622 VDD.n638 VDD.n637 13.653
R623 VDD.n644 VDD.n643 13.653
R624 VDD.n643 VDD.n642 13.653
R625 VDD.n649 VDD.n648 13.653
R626 VDD.n648 VDD.n647 13.653
R627 VDD.n655 VDD.n654 13.653
R628 VDD.n654 VDD.n653 13.653
R629 VDD.n660 VDD.n659 13.653
R630 VDD.n659 VDD.n658 13.653
R631 VDD.n665 VDD.n664 13.653
R632 VDD.n664 VDD.n663 13.653
R633 VDD.n1344 VDD.n1343 13.653
R634 VDD.n1343 VDD.n1342 13.653
R635 VDD.n1339 VDD.n1338 13.653
R636 VDD.n1338 VDD.n1337 13.653
R637 VDD.n1313 VDD.n1312 13.653
R638 VDD.n1312 VDD.n1311 13.653
R639 VDD.n1309 VDD.n1308 13.653
R640 VDD.n1308 VDD.n1307 13.653
R641 VDD.n1304 VDD.n1303 13.653
R642 VDD.n1303 VDD.n1302 13.653
R643 VDD.n1299 VDD.n1298 13.653
R644 VDD.n1298 VDD.n1297 13.653
R645 VDD.n1293 VDD.n1292 13.653
R646 VDD.n1292 VDD.n1291 13.653
R647 VDD.n1288 VDD.n1287 13.653
R648 VDD.n1287 VDD.n1286 13.653
R649 VDD.n1283 VDD.n1282 13.653
R650 VDD.n1282 VDD.n1281 13.653
R651 VDD.n1278 VDD.n1277 13.653
R652 VDD.n1277 VDD.n1276 13.653
R653 VDD.n1252 VDD.n1251 13.653
R654 VDD.n1251 VDD.n1250 13.653
R655 VDD.n1248 VDD.n1247 13.653
R656 VDD.n1247 VDD.n1246 13.653
R657 VDD.n1243 VDD.n1242 13.653
R658 VDD.n1242 VDD.n1241 13.653
R659 VDD.n1238 VDD.n1237 13.653
R660 VDD.n1237 VDD.n1236 13.653
R661 VDD.n1232 VDD.n1231 13.653
R662 VDD.n1231 VDD.n1230 13.653
R663 VDD.n1227 VDD.n1226 13.653
R664 VDD.n1226 VDD.n1225 13.653
R665 VDD.n1222 VDD.n1221 13.653
R666 VDD.n1221 VDD.n1220 13.653
R667 VDD.n1217 VDD.n1216 13.653
R668 VDD.n1216 VDD.n1215 13.653
R669 VDD.n1191 VDD.n1190 13.653
R670 VDD.n1190 VDD.n1189 13.653
R671 VDD.n1187 VDD.n1186 13.653
R672 VDD.n1186 VDD.n1185 13.653
R673 VDD.n1182 VDD.n1181 13.653
R674 VDD.n1181 VDD.n1180 13.653
R675 VDD.n1177 VDD.n1176 13.653
R676 VDD.n1176 VDD.n1175 13.653
R677 VDD.n1171 VDD.n1170 13.653
R678 VDD.n1170 VDD.n1169 13.653
R679 VDD.n1166 VDD.n1165 13.653