* SPICE3 file created from TMRDFFQNX1.ext - technology: sky130A

.subckt TMRDFFQNX1 QN D CLK VPB VNB
M1000 a_13093_1005.t3 a_11887_383.t5 VPB.t46 pshort w=2u l=0.15u
+  ad=0p pd=0u as=0p ps=0u
M1001 VPB.t56 a_147_159.t5 a_1845_1004.t2 pshort w=2u l=0.15u
+  ad=0p pd=0u as=0p ps=0u
M1002 a_6137_1004.t4 a_4891_943.t5 VPB.t11 pshort w=2u l=0.15u
+  ad=0p pd=0u as=0p ps=0u
M1003 VPB.t3 a_4569_1004.t7 a_4891_943.t1 pshort w=2u l=0.15u
+  ad=0p pd=0u as=0p ps=0u
M1004 a_13093_1005.t0 a_11887_383.t6 a_13757_1005.t4 pshort w=2u l=0.15u
+  ad=0p pd=0u as=0p ps=0u
M1005 VPB.t23 a_4439_159.t6 a_7595_383.t2 pshort w=2u l=0.15u
+  ad=0p pd=0u as=0p ps=0u
M1006 VPB.t60 a_147_159.t6 a_277_1004.t1 pshort w=2u l=0.15u
+  ad=0p pd=0u as=0p ps=0u
M1007 VPB.t76 a_6137_1004.t5 a_4439_159.t4 pshort w=2u l=0.15u
+  ad=0p pd=0u as=0p ps=0u
M1008 VNB a_8861_1004.t11 a_11656_73.t0 nshort w=-1.605u l=1.765u
+  ad=3.7611p pd=32.97u as=0p ps=0u
M1009 VPB.t33 a_8731_159.t5 a_8861_1004.t1 pshort w=2u l=0.15u
+  ad=0p pd=0u as=0p ps=0u
M1010 a_3177_1004.t4 a_277_1004.t7 VPB.t15 pshort w=2u l=0.15u
+  ad=0p pd=0u as=0p ps=0u
M1011 VPB.t1 a_1845_1004.t5 a_147_159.t0 pshort w=2u l=0.15u
+  ad=0p pd=0u as=0p ps=0u
M1012 a_11887_383.t2 a_11761_1004.t5 VPB.t75 pshort w=2u l=0.15u
+  ad=0p pd=0u as=0p ps=0u
M1013 VPB.t43 D a_9183_943.t1 pshort w=2u l=0.15u
+  ad=0p pd=0u as=0p ps=0u
M1014 VNB a_10429_1004.t5 a_10990_73.t0 nshort w=-1.605u l=1.765u
+  ad=0p pd=0u as=0p ps=0u
M1015 VNB a_8731_159.t9 a_8675_75.t0 nshort w=-1.605u l=1.765u
+  ad=0p pd=0u as=0p ps=0u
M1016 VPB.t39 D a_4891_943.t3 pshort w=2u l=0.15u
+  ad=0p pd=0u as=0p ps=0u
M1017 VPB.t16 a_7469_1004.t5 a_7595_383.t0 pshort w=2u l=0.15u
+  ad=0p pd=0u as=0p ps=0u
M1018 VPB.t63 CLK a_277_1004.t5 pshort w=2u l=0.15u
+  ad=0p pd=0u as=0p ps=0u
M1019 VNB a_4569_1004.t8 a_5366_73.t0 nshort w=-1.605u l=1.765u
+  ad=0p pd=0u as=0p ps=0u
M1020 VNB a_599_943.t5 a_1740_73.t0 nshort w=-1.605u l=1.765u
+  ad=0p pd=0u as=0p ps=0u
M1021 a_13757_1005.t1 a_7595_383.t5 a_13268_181.t4 pshort w=2u l=0.15u
+  ad=0p pd=0u as=0p ps=0u
M1022 VNB a_11887_383.t7 a_13654_73.t0 nshort w=-1.605u l=1.765u
+  ad=0p pd=0u as=0p ps=0u
M1023 a_3177_1004.t0 a_3303_383.t5 VPB.t17 pshort w=2u l=0.15u
+  ad=0p pd=0u as=0p ps=0u
M1024 VPB.t71 CLK a_147_159.t3 pshort w=2u l=0.15u
+  ad=0p pd=0u as=0p ps=0u
M1025 a_11887_383.t1 a_8731_159.t6 VPB.t53 pshort w=2u l=0.15u
+  ad=0p pd=0u as=0p ps=0u
M1026 VPB.t48 a_11887_383.t9 a_11761_1004.t2 pshort w=2u l=0.15u
+  ad=0p pd=0u as=0p ps=0u
M1027 VNB a_11887_383.t8 a_12988_73.t0 nshort w=-1.605u l=1.765u
+  ad=0p pd=0u as=0p ps=0u
M1028 VPB.t67 CLK a_4439_159.t3 pshort w=2u l=0.15u
+  ad=0p pd=0u as=0p ps=0u
M1029 a_9183_943.t0 D VPB.t42 pshort w=2u l=0.15u
+  ad=0p pd=0u as=0p ps=0u
M1030 a_3303_383.t1 a_3177_1004.t6 VPB.t50 pshort w=2u l=0.15u
+  ad=0p pd=0u as=0p ps=0u
M1031 VPB.t34 a_599_943.t6 a_277_1004.t2 pshort w=2u l=0.15u
+  ad=0p pd=0u as=0p ps=0u
M1032 VNB a_147_159.t13 a_91_75.t0 nshort w=-1.605u l=1.765u
+  ad=0p pd=0u as=0p ps=0u
M1033 VPB.t14 a_277_1004.t8 a_599_943.t4 pshort w=2u l=0.15u
+  ad=0p pd=0u as=0p ps=0u
M1034 a_8731_159.t1 a_10429_1004.t6 VPB.t29 pshort w=2u l=0.15u
+  ad=0p pd=0u as=0p ps=0u
M1035 a_4569_1004.t3 a_4891_943.t6 VPB.t0 pshort w=2u l=0.15u
+  ad=0p pd=0u as=0p ps=0u
M1036 a_13757_1005.t5 a_3303_383.t6 a_13268_181.t5 pshort w=2u l=0.15u
+  ad=0p pd=0u as=0p ps=0u
M1037 VPB.t54 a_9183_943.t7 a_10429_1004.t2 pshort w=2u l=0.15u
+  ad=0p pd=0u as=0p ps=0u
M1038 VPB.t7 a_147_159.t7 a_3303_383.t4 pshort w=2u l=0.15u
+  ad=0p pd=0u as=0p ps=0u
M1039 a_7595_383.t4 a_7469_1004.t6 VPB.t45 pshort w=2u l=0.15u
+  ad=0p pd=0u as=0p ps=0u
M1040 VNB a_4569_1004.t9 a_7364_73.t0 nshort w=-1.605u l=1.765u
+  ad=0p pd=0u as=0p ps=0u
M1041 VNB a_3177_1004.t5 a_3738_73.t0 nshort w=-1.605u l=1.765u
+  ad=0p pd=0u as=0p ps=0u
M1042 VPB.t5 a_4569_1004.t10 a_7469_1004.t1 pshort w=2u l=0.15u
+  ad=0p pd=0u as=0p ps=0u
M1043 VNB a_9183_943.t5 a_10324_73.t0 nshort w=-1.605u l=1.765u
+  ad=0p pd=0u as=0p ps=0u
M1044 a_4439_159.t2 CLK VPB.t66 pshort w=2u l=0.15u
+  ad=0p pd=0u as=0p ps=0u
M1045 a_1845_1004.t1 a_147_159.t8 VPB.t6 pshort w=2u l=0.15u
+  ad=0p pd=0u as=0p ps=0u
M1046 a_8861_1004.t6 a_9183_943.t8 VPB.t81 pshort w=2u l=0.15u
+  ad=0p pd=0u as=0p ps=0u
M1047 VPB.t24 a_4439_159.t8 a_4569_1004.t1 pshort w=2u l=0.15u
+  ad=0p pd=0u as=0p ps=0u
M1048 a_6137_1004.t2 a_4439_159.t9 VPB.t19 pshort w=2u l=0.15u
+  ad=0p pd=0u as=0p ps=0u
M1049 a_9183_943.t4 a_8861_1004.t7 VPB.t31 pshort w=2u l=0.15u
+  ad=0p pd=0u as=0p ps=0u
M1050 VNB a_4439_159.t5 a_4383_75.t0 nshort w=-1.605u l=1.765u
+  ad=0p pd=0u as=0p ps=0u
M1051 a_13093_1005.t7 a_3303_383.t7 a_13757_1005.t7 pshort w=2u l=0.15u
+  ad=0p pd=0u as=0p ps=0u
M1052 a_11761_1004.t1 a_11887_383.t11 VPB.t47 pshort w=2u l=0.15u
+  ad=0p pd=0u as=0p ps=0u
M1053 a_3303_383.t3 a_147_159.t10 VPB.t59 pshort w=2u l=0.15u
+  ad=0p pd=0u as=0p ps=0u
M1054 VPB.t58 a_7595_383.t6 a_13093_1005.t5 pshort w=2u l=0.15u
+  ad=0p pd=0u as=0p ps=0u
M1055 VNB a_277_1004.t9 a_1074_73.t0 nshort w=-1.605u l=1.765u
+  ad=0p pd=0u as=0p ps=0u
M1056 VPB.t41 D a_599_943.t2 pshort w=2u l=0.15u
+  ad=0p pd=0u as=0p ps=0u
M1057 a_13757_1005.t3 a_11887_383.t12 a_13093_1005.t1 pshort w=2u l=0.15u
+  ad=0p pd=0u as=0p ps=0u
M1058 a_8731_159.t4 CLK VPB.t72 pshort w=2u l=0.15u
+  ad=0p pd=0u as=0p ps=0u
M1059 VPB.t77 a_8731_159.t7 a_10429_1004.t3 pshort w=2u l=0.15u
+  ad=0p pd=0u as=0p ps=0u
M1060 a_277_1004.t0 a_147_159.t11 VPB.t55 pshort w=2u l=0.15u
+  ad=0p pd=0u as=0p ps=0u
M1061 a_4439_159.t0 a_6137_1004.t6 VPB.t35 pshort w=2u l=0.15u
+  ad=0p pd=0u as=0p ps=0u
M1062 VPB.t12 a_7595_383.t7 a_7469_1004.t3 pshort w=2u l=0.15u
+  ad=0p pd=0u as=0p ps=0u
M1063 VPB.t65 CLK a_4569_1004.t6 pshort w=2u l=0.15u
+  ad=0p pd=0u as=0p ps=0u
M1064 VPB.t32 a_599_943.t7 a_1845_1004.t0 pshort w=2u l=0.15u
+  ad=0p pd=0u as=0p ps=0u
M1065 a_11761_1004.t4 a_8861_1004.t8 VPB.t26 pshort w=2u l=0.15u
+  ad=0p pd=0u as=0p ps=0u
M1066 VNB a_11761_1004.t6 a_12322_73.t0 nshort w=-1.605u l=1.765u
+  ad=0p pd=0u as=0p ps=0u
M1067 VPB.t49 a_11887_383.t13 a_13093_1005.t2 pshort w=2u l=0.15u
+  ad=0p pd=0u as=0p ps=0u
M1068 a_4891_943.t2 D VPB.t38 pshort w=2u l=0.15u
+  ad=0p pd=0u as=0p ps=0u
M1069 a_13757_1005.t6 a_3303_383.t10 a_13093_1005.t6 pshort w=2u l=0.15u
+  ad=0p pd=0u as=0p ps=0u
M1070 a_277_1004.t4 CLK VPB.t64 pshort w=2u l=0.15u
+  ad=0p pd=0u as=0p ps=0u
M1071 VNB a_6137_1004.t7 a_6698_73.t0 nshort w=-1.605u l=1.765u
+  ad=0p pd=0u as=0p ps=0u
M1072 VNB a_277_1004.t10 a_3072_73.t0 nshort w=-1.605u l=1.765u
+  ad=0p pd=0u as=0p ps=0u
M1073 VPB.t8 a_4891_943.t8 a_4569_1004.t2 pshort w=2u l=0.15u
+  ad=0p pd=0u as=0p ps=0u
M1074 VPB.t62 a_277_1004.t11 a_3177_1004.t3 pshort w=2u l=0.15u
+  ad=0p pd=0u as=0p ps=0u
M1075 a_147_159.t2 CLK VPB.t70 pshort w=2u l=0.15u
+  ad=0p pd=0u as=0p ps=0u
M1076 VPB.t79 a_11761_1004.t7 a_11887_383.t4 pshort w=2u l=0.15u
+  ad=0p pd=0u as=0p ps=0u
M1077 VNB a_4891_943.t7 a_6032_73.t0 nshort w=-1.605u l=1.765u
+  ad=0p pd=0u as=0p ps=0u
M1078 VNB a_3303_383.t9 a_14320_73.t0 nshort w=-1.605u l=1.765u
+  ad=0p pd=0u as=0p ps=0u
M1079 a_4891_943.t0 a_4569_1004.t11 VPB.t2 pshort w=2u l=0.15u
+  ad=0p pd=0u as=0p ps=0u
M1080 a_7595_383.t1 a_4439_159.t10 VPB.t22 pshort w=2u l=0.15u
+  ad=0p pd=0u as=0p ps=0u
M1081 a_277_1004.t3 a_599_943.t8 VPB.t51 pshort w=2u l=0.15u
+  ad=0p pd=0u as=0p ps=0u
M1082 a_599_943.t3 a_277_1004.t12 VPB.t13 pshort w=2u l=0.15u
+  ad=0p pd=0u as=0p ps=0u
M1083 a_8861_1004.t0 a_8731_159.t10 VPB.t78 pshort w=2u l=0.15u
+  ad=0p pd=0u as=0p ps=0u
M1084 a_13268_181.t0 a_3303_383.t11 a_13757_1005.t2 pshort w=2u l=0.15u
+  ad=0p pd=0u as=0p ps=0u
M1085 VPB.t74 CLK a_8731_159.t3 pshort w=2u l=0.15u
+  ad=0p pd=0u as=0p ps=0u
M1086 a_10429_1004.t4 a_9183_943.t9 VPB.t80 pshort w=2u l=0.15u
+  ad=0p pd=0u as=0p ps=0u
M1087 a_147_159.t1 a_1845_1004.t6 VPB.t9 pshort w=2u l=0.15u
+  ad=0p pd=0u as=0p ps=0u
M1088 a_7469_1004.t0 a_4569_1004.t12 VPB.t4 pshort w=2u l=0.15u
+  ad=0p pd=0u as=0p ps=0u
M1089 VPB.t18 a_3303_383.t12 a_3177_1004.t1 pshort w=2u l=0.15u
+  ad=0p pd=0u as=0p ps=0u
M1090 VPB.t27 a_8731_159.t12 a_11887_383.t0 pshort w=2u l=0.15u
+  ad=0p pd=0u as=0p ps=0u
M1091 VPB.t69 CLK a_8861_1004.t5 pshort w=2u l=0.15u
+  ad=0p pd=0u as=0p ps=0u
M1092 a_4569_1004.t0 a_4439_159.t11 VPB.t21 pshort w=2u l=0.15u
+  ad=0p pd=0u as=0p ps=0u
M1093 VPB.t10 a_4891_943.t9 a_6137_1004.t3 pshort w=2u l=0.15u
+  ad=0p pd=0u as=0p ps=0u
M1094 VNB a_7469_1004.t7 a_8030_73.t0 nshort w=-1.605u l=1.765u
+  ad=0p pd=0u as=0p ps=0u
M1095 VPB.t37 a_8861_1004.t10 a_11761_1004.t3 pshort w=2u l=0.15u
+  ad=0p pd=0u as=0p ps=0u
M1096 VPB.t52 a_3177_1004.t7 a_3303_383.t0 pshort w=2u l=0.15u
+  ad=0p pd=0u as=0p ps=0u
M1097 a_13093_1005.t4 a_7595_383.t10 VPB.t57 pshort w=2u l=0.15u
+  ad=0p pd=0u as=0p ps=0u
M1098 a_599_943.t1 D VPB.t40 pshort w=2u l=0.15u
+  ad=0p pd=0u as=0p ps=0u
M1099 VPB.t30 a_10429_1004.t7 a_8731_159.t0 pshort w=2u l=0.15u
+  ad=0p pd=0u as=0p ps=0u
M1100 VNB a_1845_1004.t7 a_2406_73.t0 nshort w=-1.605u l=1.765u
+  ad=0p pd=0u as=0p ps=0u
M1101 a_13268_181.t3 a_7595_383.t11 a_13757_1005.t0 pshort w=2u l=0.15u
+  ad=0p pd=0u as=0p ps=0u
M1102 a_10429_1004.t1 a_8731_159.t13 VPB.t25 pshort w=2u l=0.15u
+  ad=0p pd=0u as=0p ps=0u
M1103 a_7469_1004.t2 a_7595_383.t12 VPB.t61 pshort w=2u l=0.15u
+  ad=0p pd=0u as=0p ps=0u
M1104 VNB a_8861_1004.t9 a_9658_73.t0 nshort w=-1.605u l=1.765u
+  ad=0p pd=0u as=0p ps=0u
M1105 VPB.t28 a_9183_943.t10 a_8861_1004.t2 pshort w=2u l=0.15u
+  ad=0p pd=0u as=0p ps=0u
M1106 a_4569_1004.t5 CLK VPB.t73 pshort w=2u l=0.15u
+  ad=0p pd=0u as=0p ps=0u
M1107 VPB.t20 a_4439_159.t13 a_6137_1004.t1 pshort w=2u l=0.15u
+  ad=0p pd=0u as=0p ps=0u
M1108 VPB.t36 a_8861_1004.t12 a_9183_943.t3 pshort w=2u l=0.15u
+  ad=0p pd=0u as=0p ps=0u
M1109 a_1845_1004.t4 a_599_943.t10 VPB.t44 pshort w=2u l=0.15u
+  ad=0p pd=0u as=0p ps=0u
M1110 a_8861_1004.t4 CLK VPB.t68 pshort w=2u l=0.15u
+  ad=0p pd=0u as=0p ps=0u
C0 D CLK 1.40fF
C1 VPB D 0.22fF
C2 VPB CLK 3.13fF
R0 a_10429_1004.n3 a_10429_1004.t7 480.392
R1 a_10429_1004.n3 a_10429_1004.t6 403.272
R2 a_10429_1004.n4 a_10429_1004.t5 266.974
R3 a_10429_1004.n7 a_10429_1004.n5 200.608
R4 a_10429_1004.n5 a_10429_1004.n2 162.547
R5 a_10429_1004.n5 a_10429_1004.n4 153.315
R6 a_10429_1004.n4 a_10429_1004.n3 108.494
R7 a_10429_1004.n2 a_10429_1004.n1 76.002
R8 a_10429_1004.n7 a_10429_1004.n6 15.218
R9 a_10429_1004.n0 a_10429_1004.t3 14.282
R10 a_10429_1004.n0 a_10429_1004.t1 14.282
R11 a_10429_1004.n1 a_10429_1004.t2 14.282
R12 a_10429_1004.n1 a_10429_1004.t4 14.282
R13 a_10429_1004.n2 a_10429_1004.n0 12.85
R14 a_10429_1004.n8 a_10429_1004.n7 12.014
R15 a_10990_73.t0 a_10990_73.n6 93.333
R16 a_10990_73.n4 a_10990_73.n3 41.622
R17 a_10990_73.t0 a_10990_73.n4 21.209
R18 a_10990_73.t0 a_10990_73.n5 11.595
R19 a_10990_73.t0 a_10990_73.n7 8.137
R20 a_10990_73.n2 a_10990_73.n0 4.031
R21 a_10990_73.n2 a_10990_73.n1 3.644
R22 a_10990_73.t0 a_10990_73.n2 1.093
R23 VNB VNB.n1157 300.778
R24 VNB.n174 VNB.n173 199.897
R25 VNB.n226 VNB.n225 199.897
R26 VNB.n278 VNB.n277 199.897
R27 VNB.n330 VNB.n329 199.897
R28 VNB.n382 VNB.n381 199.897
R29 VNB.n434 VNB.n433 199.897
R30 VNB.n486 VNB.n485 199.897
R31 VNB.n538 VNB.n537 199.897
R32 VNB.n606 VNB.n605 199.897
R33 VNB.n68 VNB.n67 199.897
R34 VNB.n658 VNB.n657 199.897
R35 VNB.n710 VNB.n709 199.897
R36 VNB.n762 VNB.n761 199.897
R37 VNB.n814 VNB.n813 199.897
R38 VNB.n882 VNB.n881 199.897
R39 VNB.n934 VNB.n933 199.897
R40 VNB.n986 VNB.n985 199.897
R41 VNB.n1038 VNB.n1037 199.897
R42 VNB.n1090 VNB.n1089 199.897
R43 VNB.n15 VNB.n14 199.897
R44 VNB.n183 VNB.n181 154.509
R45 VNB.n287 VNB.n285 154.509
R46 VNB.n235 VNB.n233 154.509
R47 VNB.n391 VNB.n389 154.509
R48 VNB.n339 VNB.n337 154.509
R49 VNB.n495 VNB.n493 154.509
R50 VNB.n443 VNB.n441 154.509
R51 VNB.n615 VNB.n613 154.509
R52 VNB.n547 VNB.n545 154.509
R53 VNB.n667 VNB.n665 154.509
R54 VNB.n101 VNB.n99 154.509
R55 VNB.n771 VNB.n769 154.509
R56 VNB.n719 VNB.n717 154.509
R57 VNB.n891 VNB.n889 154.509
R58 VNB.n823 VNB.n821 154.509
R59 VNB.n995 VNB.n993 154.509
R60 VNB.n943 VNB.n941 154.509
R61 VNB.n1099 VNB.n1097 154.509
R62 VNB.n1047 VNB.n1045 154.509
R63 VNB.n24 VNB.n22 154.509
R64 VNB.n82 VNB.n81 121.366
R65 VNB.n583 VNB.n582 85.559
R66 VNB.n859 VNB.n858 85.559
R67 VNB.n53 VNB.n4 85.559
R68 VNB.n151 VNB.n150 84.842
R69 VNB.n203 VNB.n202 84.842
R70 VNB.n255 VNB.n254 84.842
R71 VNB.n307 VNB.n306 84.842
R72 VNB.n359 VNB.n358 84.842
R73 VNB.n411 VNB.n410 84.842
R74 VNB.n463 VNB.n462 84.842
R75 VNB.n515 VNB.n514 84.842
R76 VNB.n115 VNB.n57 84.842
R77 VNB.n687 VNB.n686 84.842
R78 VNB.n739 VNB.n738 84.842
R79 VNB.n791 VNB.n790 84.842
R80 VNB.n911 VNB.n910 84.842
R81 VNB.n963 VNB.n962 84.842
R82 VNB.n1015 VNB.n1014 84.842
R83 VNB.n1067 VNB.n1066 84.842
R84 VNB.n1119 VNB.n1118 84.842
R85 VNB.n1144 VNB.n1143 76
R86 VNB.n1131 VNB.n1130 76
R87 VNB.n1127 VNB.n1126 76
R88 VNB.n1123 VNB.n1122 76
R89 VNB.n1117 VNB.n1116 76
R90 VNB.n1113 VNB.n1112 76
R91 VNB.n1109 VNB.n1108 76
R92 VNB.n1105 VNB.n1104 76
R93 VNB.n1101 VNB.n1100 76
R94 VNB.n1079 VNB.n1078 76
R95 VNB.n1075 VNB.n1074 76
R96 VNB.n1071 VNB.n1070 76
R97 VNB.n1065 VNB.n1064 76
R98 VNB.n1061 VNB.n1060 76
R99 VNB.n1057 VNB.n1056 76
R100 VNB.n1053 VNB.n1052 76
R101 VNB.n1049 VNB.n1048 76
R102 VNB.n1027 VNB.n1026 76
R103 VNB.n1023 VNB.n1022 76
R104 VNB.n1019 VNB.n1018 76
R105 VNB.n1013 VNB.n1012 76
R106 VNB.n1009 VNB.n1008 76
R107 VNB.n1005 VNB.n1004 76
R108 VNB.n1001 VNB.n1000 76
R109 VNB.n997 VNB.n996 76
R110 VNB.n975 VNB.n974 76
R111 VNB.n971 VNB.n970 76
R112 VNB.n967 VNB.n966 76
R113 VNB.n961 VNB.n960 76
R114 VNB.n957 VNB.n956 76
R115 VNB.n953 VNB.n952 76
R116 VNB.n949 VNB.n948 76
R117 VNB.n945 VNB.n944 76
R118 VNB.n923 VNB.n922 76
R119 VNB.n919 VNB.n918 76
R120 VNB.n915 VNB.n914 76
R121 VNB.n909 VNB.n908 76
R122 VNB.n905 VNB.n904 76
R123 VNB.n901 VNB.n900 76
R124 VNB.n897 VNB.n896 76
R125 VNB.n893 VNB.n892 76
R126 VNB.n871 VNB.n870 76
R127 VNB.n867 VNB.n866 76
R128 VNB.n863 VNB.n862 76
R129 VNB.n857 VNB.n856 76
R130 VNB.n853 VNB.n852 76
R131 VNB.n849 VNB.n848 76
R132 VNB.n845 VNB.n844 76
R133 VNB.n841 VNB.n840 76
R134 VNB.n837 VNB.n836 76
R135 VNB.n833 VNB.n832 76
R136 VNB.n829 VNB.n828 76
R137 VNB.n825 VNB.n824 76
R138 VNB.n803 VNB.n802 76
R139 VNB.n799 VNB.n798 76
R140 VNB.n795 VNB.n794 76
R141 VNB.n789 VNB.n788 76
R142 VNB.n785 VNB.n784 76
R143 VNB.n781 VNB.n780 76
R144 VNB.n777 VNB.n776 76
R145 VNB.n773 VNB.n772 76
R146 VNB.n751 VNB.n750 76
R147 VNB.n747 VNB.n746 76
R148 VNB.n743 VNB.n742 76
R149 VNB.n737 VNB.n736 76
R150 VNB.n733 VNB.n732 76
R151 VNB.n729 VNB.n728 76
R152 VNB.n725 VNB.n724 76
R153 VNB.n721 VNB.n720 76
R154 VNB.n699 VNB.n698 76
R155 VNB.n695 VNB.n694 76
R156 VNB.n691 VNB.n690 76
R157 VNB.n685 VNB.n684 76
R158 VNB.n681 VNB.n680 76
R159 VNB.n677 VNB.n676 76
R160 VNB.n673 VNB.n672 76
R161 VNB.n669 VNB.n668 76
R162 VNB.n647 VNB.n646 76
R163 VNB.n643 VNB.n642 76
R164 VNB.n639 VNB.n636 76
R165 VNB.n625 VNB.n624 76
R166 VNB.n621 VNB.n620 76
R167 VNB.n617 VNB.n616 76
R168 VNB.n595 VNB.n594 76
R169 VNB.n591 VNB.n590 76
R170 VNB.n587 VNB.n586 76
R171 VNB.n581 VNB.n580 76
R172 VNB.n577 VNB.n576 76
R173 VNB.n573 VNB.n572 76
R174 VNB.n569 VNB.n568 76
R175 VNB.n565 VNB.n564 76
R176 VNB.n561 VNB.n560 76
R177 VNB.n557 VNB.n556 76
R178 VNB.n553 VNB.n552 76
R179 VNB.n549 VNB.n548 76
R180 VNB.n527 VNB.n526 76
R181 VNB.n523 VNB.n522 76
R182 VNB.n519 VNB.n518 76
R183 VNB.n513 VNB.n512 76
R184 VNB.n509 VNB.n508 76
R185 VNB.n505 VNB.n504 76
R186 VNB.n501 VNB.n500 76
R187 VNB.n497 VNB.n496 76
R188 VNB.n475 VNB.n474 76
R189 VNB.n471 VNB.n470 76
R190 VNB.n467 VNB.n466 76
R191 VNB.n461 VNB.n460 76
R192 VNB.n457 VNB.n456 76
R193 VNB.n453 VNB.n452 76
R194 VNB.n449 VNB.n448 76
R195 VNB.n445 VNB.n444 76
R196 VNB.n423 VNB.n422 76
R197 VNB.n419 VNB.n418 76
R198 VNB.n415 VNB.n414 76
R199 VNB.n409 VNB.n408 76
R200 VNB.n405 VNB.n404 76
R201 VNB.n401 VNB.n400 76
R202 VNB.n397 VNB.n396 76
R203 VNB.n393 VNB.n392 76
R204 VNB.n371 VNB.n370 76
R205 VNB.n367 VNB.n366 76
R206 VNB.n363 VNB.n362 76
R207 VNB.n357 VNB.n356 76
R208 VNB.n353 VNB.n352 76
R209 VNB.n349 VNB.n348 76
R210 VNB.n345 VNB.n344 76
R211 VNB.n341 VNB.n340 76
R212 VNB.n319 VNB.n318 76
R213 VNB.n315 VNB.n314 76
R214 VNB.n311 VNB.n310 76
R215 VNB.n305 VNB.n304 76
R216 VNB.n301 VNB.n300 76
R217 VNB.n297 VNB.n296 76
R218 VNB.n293 VNB.n292 76
R219 VNB.n289 VNB.n288 76
R220 VNB.n267 VNB.n266 76
R221 VNB.n263 VNB.n262 76
R222 VNB.n259 VNB.n258 76
R223 VNB.n253 VNB.n252 76
R224 VNB.n249 VNB.n248 76
R225 VNB.n245 VNB.n244 76
R226 VNB.n241 VNB.n240 76
R227 VNB.n237 VNB.n236 76
R228 VNB.n215 VNB.n214 76
R229 VNB.n211 VNB.n210 76
R230 VNB.n207 VNB.n206 76
R231 VNB.n201 VNB.n200 76
R232 VNB.n197 VNB.n196 76
R233 VNB.n193 VNB.n192 76
R234 VNB.n189 VNB.n188 76
R235 VNB.n185 VNB.n184 76
R236 VNB.n163 VNB.n162 76
R237 VNB.n159 VNB.n158 76
R238 VNB.n155 VNB.n154 76
R239 VNB.n149 VNB.n148 76
R240 VNB.n86 VNB.n77 63.835
R241 VNB.n585 VNB.n584 41.971
R242 VNB.n861 VNB.n860 41.971
R243 VNB.n51 VNB.n50 41.971
R244 VNB.n83 VNB.n82 36.937
R245 VNB.n153 VNB.n152 36.678
R246 VNB.n205 VNB.n204 36.678
R247 VNB.n257 VNB.n256 36.678
R248 VNB.n309 VNB.n308 36.678
R249 VNB.n361 VNB.n360 36.678
R250 VNB.n413 VNB.n412 36.678
R251 VNB.n465 VNB.n464 36.678
R252 VNB.n517 VNB.n516 36.678
R253 VNB.n638 VNB.n637 36.678
R254 VNB.n689 VNB.n688 36.678
R255 VNB.n741 VNB.n740 36.678
R256 VNB.n793 VNB.n792 36.678
R257 VNB.n913 VNB.n912 36.678
R258 VNB.n965 VNB.n964 36.678
R259 VNB.n1017 VNB.n1016 36.678
R260 VNB.n1069 VNB.n1068 36.678
R261 VNB.n1121 VNB.n1120 36.678
R262 VNB.n144 VNB.n143 35.118
R263 VNB.n77 VNB.n76 28.421
R264 VNB.n89 VNB.n88 27.855
R265 VNB.n77 VNB.n75 25.263
R266 VNB.n75 VNB.n74 24.383
R267 VNB.n133 VNB.n130 20.452
R268 VNB.n1145 VNB.n1144 20.452
R269 VNB.n90 VNB.n89 16.721
R270 VNB.n142 VNB.n141 13.653
R271 VNB.n141 VNB.n140 13.653
R272 VNB.n139 VNB.n138 13.653
R273 VNB.n138 VNB.n137 13.653
R274 VNB.n136 VNB.n135 13.653
R275 VNB.n135 VNB.n134 13.653
R276 VNB.n148 VNB.n147 13.653
R277 VNB.n147 VNB.n146 13.653
R278 VNB.n154 VNB.n153 13.653
R279 VNB.n158 VNB.n157 13.653
R280 VNB.n157 VNB.n156 13.653
R281 VNB.n162 VNB.n161 13.653
R282 VNB.n161 VNB.n160 13.653
R283 VNB.n184 VNB.n183 13.653
R284 VNB.n183 VNB.n182 13.653
R285 VNB.n188 VNB.n187 13.653
R286 VNB.n187 VNB.n186 13.653
R287 VNB.n192 VNB.n191 13.653
R288 VNB.n191 VNB.n190 13.653
R289 VNB.n196 VNB.n195 13.653
R290 VNB.n195 VNB.n194 13.653
R291 VNB.n200 VNB.n199 13.653
R292 VNB.n199 VNB.n198 13.653
R293 VNB.n206 VNB.n205 13.653
R294 VNB.n210 VNB.n209 13.653
R295 VNB.n209 VNB.n208 13.653
R296 VNB.n214 VNB.n213 13.653
R297 VNB.n213 VNB.n212 13.653
R298 VNB.n236 VNB.n235 13.653
R299 VNB.n235 VNB.n234 13.653
R300 VNB.n240 VNB.n239 13.653
R301 VNB.n239 VNB.n238 13.653
R302 VNB.n244 VNB.n243 13.653
R303 VNB.n243 VNB.n242 13.653
R304 VNB.n248 VNB.n247 13.653
R305 VNB.n247 VNB.n246 13.653
R306 VNB.n252 VNB.n251 13.653
R307 VNB.n251 VNB.n250 13.653
R308 VNB.n258 VNB.n257 13.653
R309 VNB.n262 VNB.n261 13.653
R310 VNB.n261 VNB.n260 13.653
R311 VNB.n266 VNB.n265 13.653
R312 VNB.n265 VNB.n264 13.653
R313 VNB.n288 VNB.n287 13.653
R314 VNB.n287 VNB.n286 13.653
R315 VNB.n292 VNB.n291 13.653
R316 VNB.n291 VNB.n290 13.653
R317 VNB.n296 VNB.n295 13.653
R318 VNB.n295 VNB.n294 13.653
R319 VNB.n300 VNB.n299 13.653
R320 VNB.n299 VNB.n298 13.653
R321 VNB.n304 VNB.n303 13.653
R322 VNB.n303 VNB.n302 13.653
R323 VNB.n310 VNB.n309 13.653
R324 VNB.n314 VNB.n313 13.653
R325 VNB.n313 VNB.n312 13.653
R326 VNB.n318 VNB.n317 13.653
R327 VNB.n317 VNB.n316 13.653
R328 VNB.n340 VNB.n339 13.653
R329 VNB.n339 VNB.n338 13.653
R330 VNB.n344 VNB.n343 13.653
R331 VNB.n343 VNB.n342 13.653
R332 VNB.n348 VNB.n347 13.653
R333 VNB.n347 VNB.n346 13.653
R334 VNB.n352 VNB.n351 13.653
R335 VNB.n351 VNB.n350 13.653
R336 VNB.n356 VNB.n355 13.653
R337 VNB.n355 VNB.n354 13.653
R338 VNB.n362 VNB.n361 13.653
R339 VNB.n366 VNB.n365 13.653
R340 VNB.n365 VNB.n364 13.653
R341 VNB.n370 VNB.n369 13.653
R342 VNB.n369 VNB.n368 13.653
R343 VNB.n392 VNB.n391 13.653
R344 VNB.n391 VNB.n390 13.653
R345 VNB.n396 VNB.n395 13.653
R346 VNB.n395 VNB.n394 13.653
R347 VNB.n400 VNB.n399 13.653
R348 VNB.n399 VNB.n398 13.653
R349 VNB.n404 VNB.n403 13.653
R350 VNB.n403 VNB.n402 13.653
R351 VNB.n408 VNB.n407 13.653
R352 VNB.n407 VNB.n406 13.653
R353 VNB.n414 VNB.n413 13.653
R354 VNB.n418 VNB.n417 13.653
R355 VNB.n417 VNB.n416 13.653
R356 VNB.n422 VNB.n421 13.653
R357 VNB.n421 VNB.n420 13.653
R358 VNB.n444 VNB.n443 13.653
R359 VNB.n443 VNB.n442 13.653
R360 VNB.n448 VNB.n447 13.653
R361 VNB.n447 VNB.n446 13.653
R362 VNB.n452 VNB.n451 13.653
R363 VNB.n451 VNB.n450 13.653
R364 VNB.n456 VNB.n455 13.653
R365 VNB.n455 VNB.n454 13.653
R366 VNB.n460 VNB.n459 13.653
R367 VNB.n459 VNB.n458 13.653
R368 VNB.n466 VNB.n465 13.653
R369 VNB.n470 VNB.n469 13.653
R370 VNB.n469 VNB.n468 13.653
R371 VNB.n474 VNB.n473 13.653
R372 VNB.n473 VNB.n472 13.653
R373 VNB.n496 VNB.n495 13.653
R374 VNB.n495 VNB.n494 13.653
R375 VNB.n500 VNB.n499 13.653
R376 VNB.n499 VNB.n498 13.653
R377 VNB.n504 VNB.n503 13.653
R378 VNB.n503 VNB.n502 13.653
R379 VNB.n508 VNB.n507 13.653
R380 VNB.n507 VNB.n506 13.653
R381 VNB.n512 VNB.n511 13.653
R382 VNB.n511 VNB.n510 13.653
R383 VNB.n518 VNB.n517 13.653
R384 VNB.n522 VNB.n521 13.653
R385 VNB.n521 VNB.n520 13.653
R386 VNB.n526 VNB.n525 13.653
R387 VNB.n525 VNB.n524 13.653
R388 VNB.n548 VNB.n547 13.653
R389 VNB.n547 VNB.n546 13.653
R390 VNB.n552 VNB.n551 13.653
R391 VNB.n551 VNB.n550 13.653
R392 VNB.n556 VNB.n555 13.653
R393 VNB.n555 VNB.n554 13.653
R394 VNB.n560 VNB.n559 13.653
R395 VNB.n559 VNB.n558 13.653
R396 VNB.n564 VNB.n563 13.653
R397 VNB.n563 VNB.n562 13.653
R398 VNB.n568 VNB.n567 13.653
R399 VNB.n567 VNB.n566 13.653
R400 VNB.n572 VNB.n571 13.653
R401 VNB.n571 VNB.n570 13.653
R402 VNB.n576 VNB.n575 13.653
R403 VNB.n575 VNB.n574 13.653
R404 VNB.n580 VNB.n579 13.653
R405 VNB.n579 VNB.n578 13.653
R406 VNB.n586 VNB.n585 13.653
R407 VNB.n590 VNB.n589 13.653
R408 VNB.n589 VNB.n588 13.653
R409 VNB.n594 VNB.n593 13.653
R410 VNB.n593 VNB.n592 13.653
R411 VNB.n616 VNB.n615 13.653
R412 VNB.n615 VNB.n614 13.653
R413 VNB.n620 VNB.n619 13.653
R414 VNB.n619 VNB.n618 13.653
R415 VNB.n624 VNB.n623 13.653
R416 VNB.n623 VNB.n622 13.653
R417 VNB.n80 VNB.n79 13.653
R418 VNB.n79 VNB.n78 13.653
R419 VNB.n85 VNB.n84 13.653
R420 VNB.n84 VNB.n83 13.653
R421 VNB.n91 VNB.n90 13.653
R422 VNB.n94 VNB.n93 13.653
R423 VNB.n93 VNB.n92 13.653
R424 VNB.n97 VNB.n96 13.653
R425 VNB.n96 VNB.n95 13.653
R426 VNB.n102 VNB.n101 13.653
R427 VNB.n101 VNB.n100 13.653
R428 VNB.n105 VNB.n104 13.653
R429 VNB.n104 VNB.n103 13.653
R430 VNB.n108 VNB.n107 13.653
R431 VNB.n107 VNB.n106 13.653
R432 VNB.n111 VNB.n110 13.653
R433 VNB.n110 VNB.n109 13.653
R434 VNB.n114 VNB.n113 13.653
R435 VNB.n113 VNB.n112 13.653
R436 VNB.n639 VNB.n638 13.653
R437 VNB.n642 VNB.n641 13.653
R438 VNB.n641 VNB.n640 13.653
R439 VNB.n646 VNB.n645 13.653
R440 VNB.n645 VNB.n644 13.653
R441 VNB.n668 VNB.n667 13.653
R442 VNB.n667 VNB.n666 13.653
R443 VNB.n672 VNB.n671 13.653
R444 VNB.n671 VNB.n670 13.653
R445 VNB.n676 VNB.n675 13.653
R446 VNB.n675 VNB.n674 13.653
R447 VNB.n680 VNB.n679 13.653
R448 VNB.n679 VNB.n678 13.653
R449 VNB.n684 VNB.n683 13.653
R450 VNB.n683 VNB.n682 13.653
R451 VNB.n690 VNB.n689 13.653
R452 VNB.n694 VNB.n693 13.653
R453 VNB.n693 VNB.n692 13.653
R454 VNB.n698 VNB.n697 13.653
R455 VNB.n697 VNB.n696 13.653
R456 VNB.n720 VNB.n719 13.653
R457 VNB.n719 VNB.n718 13.653
R458 VNB.n724 VNB.n723 13.653
R459 VNB.n723 VNB.n722 13.653
R460 VNB.n728 VNB.n727 13.653
R461 VNB.n727 VNB.n726 13.653
R462 VNB.n732 VNB.n731 13.653
R463 VNB.n731 VNB.n730 13.653
R464 VNB.n736 VNB.n735 13.653
R465 VNB.n735 VNB.n734 13.653
R466 VNB.n742 VNB.n741 13.653
R467 VNB.n746 VNB.n745 13.653
R468 VNB.n745 VNB.n744 13.653
R469 VNB.n750 VNB.n749 13.653
R470 VNB.n749 VNB.n748 13.653
R471 VNB.n772 VNB.n771 13.653
R472 VNB.n771 VNB.n770 13.653
R473 VNB.n776 VNB.n775 13.653
R474 VNB.n775 VNB.n774 13.653
R475 VNB.n780 VNB.n779 13.653
R476 VNB.n779 VNB.n778 13.653
R477 VNB.n784 VNB.n783 13.653
R478 VNB.n783 VNB.n782 13.653
R479 VNB.n788 VNB.n787 13.653
R480 VNB.n787 VNB.n786 13.653
R481 VNB.n794 VNB.n793 13.653
R482 VNB.n798 VNB.n797 13.653
R483 VNB.n797 VNB.n796 13.653
R484 VNB.n802 VNB.n801 13.653
R485 VNB.n801 VNB.n800 13.653
R486 VNB.n824 VNB.n823 13.653
R487 VNB.n823 VNB.n822 13.653
R488 VNB.n828 VNB.n827 13.653
R489 VNB.n827 VNB.n826 13.653
R490 VNB.n832 VNB.n831 13.653
R491 VNB.n831 VNB.n830 13.653
R492 VNB.n836 VNB.n835 13.653
R493 VNB.n835 VNB.n834 13.653
R494 VNB.n840 VNB.n839 13.653
R495 VNB.n839 VNB.n838 13.653
R496 VNB.n844 VNB.n843 13.653
R497 VNB.n843 VNB.n842 13.653
R498 VNB.n848 VNB.n847 13.653
R499 VNB.n847 VNB.n846 13.653
R500 VNB.n852 VNB.n851 13.653
R501 VNB.n851 VNB.n850 13.653
R502 VNB.n856 VNB.n855 13.653
R503 VNB.n855 VNB.n854 13.653
R504 VNB.n862 VNB.n861 13.653
R505 VNB.n866 VNB.n865 13.653
R506 VNB.n865 VNB.n864 13.653
R507 VNB.n870 VNB.n869 13.653
R508 VNB.n869 VNB.n868 13.653
R509 VNB.n892 VNB.n891 13.653
R510 VNB.n891 VNB.n890 13.653
R511 VNB.n896 VNB.n895 13.653
R512 VNB.n895 VNB.n894 13.653
R513 VNB.n900 VNB.n899 13.653
R514 VNB.n899 VNB.n898 13.653
R515 VNB.n904 VNB.n903 13.653
R516 VNB.n903 VNB.n902 13.653
R517 VNB.n908 VNB.n907 13.653
R518 VNB.n907 VNB.n906 13.653
R519 VNB.n914 VNB.n913 13.653
R520 VNB.n918 VNB.n917 13.653
R521 VNB.n917 VNB.n916 13.653
R522 VNB.n922 VNB.n921 13.653
R523 VNB.n921 VNB.n920 13.653
R524 VNB.n944 VNB.n943 13.653
R525 VNB.n943 VNB.n942 13.653
R526 VNB.n948 VNB.n947 13.653
R527 VNB.n947 VNB.n946 13.653
R528 VNB.n952 VNB.n951 13.653
R529 VNB.n951 VNB.n950 13.653
R530 VNB.n956 VNB.n955 13.653
R531 VNB.n955 VNB.n954 13.653
R532 VNB.n960 VNB.n959 13.653
R533 VNB.n959 VNB.n958 13.653
R534 VNB.n966 VNB.n965 13.653
R535 VNB.n970 VNB.n969 13.653
R536 VNB.n969 VNB.n968 13.653
R537 VNB.n974 VNB.n973 13.653
R538 VNB.n973 VNB.n972 13.653
R539 VNB.n996 VNB.n995 13.653
R540 VNB.n995 VNB.n994 13.653
R541 VNB.n1000 VNB.n999 13.653
R542 VNB.n999 VNB.n998 13.653
R543 VNB.n1004 VNB.n1003 13.653
R544 VNB.n1003 VNB.n1002 13.653
R545 VNB.n1008 VNB.n1007 13.653
R546 VNB.n1007 VNB.n1006 13.653
R547 VNB.n1012 VNB.n1011 13.653
R548 VNB.n1011 VNB.n1010 13.653
R549 VNB.n1018 VNB.n1017 13.653
R550 VNB.n1022 VNB.n1021 13.653
R551 VNB.n1021 VNB.n1020 13.653
R552 VNB.n1026 VNB.n1025 13.653
R553 VNB.n1025 VNB.n1024 13.653
R554 VNB.n1048 VNB.n1047 13.653
R555 VNB.n1047 VNB.n1046 13.653
R556 VNB.n1052 VNB.n1051 13.653
R557 VNB.n1051 VNB.n1050 13.653
R558 VNB.n1056 VNB.n1055 13.653
R559 VNB.n1055 VNB.n1054 13.653
R560 VNB.n1060 VNB.n1059 13.653
R561 VNB.n1059 VNB.n1058 13.653
R562 VNB.n1064 VNB.n1063 13.653
R563 VNB.n1063 VNB.n1062 13.653
R564 VNB.n1070 VNB.n1069 13.653
R565 VNB.n1074 VNB.n1073 13.653
R566 VNB.n1073 VNB.n1072 13.653
R567 VNB.n1078 VNB.n1077 13.653
R568 VNB.n1077 VNB.n1076 13.653
R569 VNB.n1100 VNB.n1099 13.653
R570 VNB.n1099 VNB.n1098 13.653
R571 VNB.n1104 VNB.n1103 13.653
R572 VNB.n1103 VNB.n1102 13.653
R573 VNB.n1108 VNB.n1107 13.653
R574 VNB.n1107 VNB.n1106 13.653
R575 VNB.n1112 VNB.n1111 13.653
R576 VNB.n1111 VNB.n1110 13.653
R577 VNB.n1116 VNB.n1115 13.653
R578 VNB.n1115 VNB.n1114 13.653
R579 VNB.n1122 VNB.n1121 13.653
R580 VNB.n1126 VNB.n1125 13.653
R581 VNB.n1125 VNB.n1124 13.653
R582 VNB.n1130 VNB.n1129 13.653
R583 VNB.n1129 VNB.n1128 13.653
R584 VNB.n25 VNB.n24 13.653
R585 VNB.n24 VNB.n23 13.653
R586 VNB.n28 VNB.n27 13.653
R587 VNB.n27 VNB.n26 13.653
R588 VNB.n31 VNB.n30 13.653
R589 VNB.n30 VNB.n29 13.653
R590 VNB.n34 VNB.n33 13.653
R591 VNB.n33 VNB.n32 13.653
R592 VNB.n37 VNB.n36 13.653
R593 VNB.n36 VNB.n35 13.653
R594 VNB.n40 VNB.n39 13.653
R595 VNB.n39 VNB.n38 13.653
R596 VNB.n43 VNB.n42 13.653
R597 VNB.n42 VNB.n41 13.653
R598 VNB.n46 VNB.n45 13.653
R599 VNB.n45 VNB.n44 13.653
R600 VNB.n49 VNB.n48 13.653
R601 VNB.n48 VNB.n47 13.653
R602 VNB.n52 VNB.n51 13.653
R603 VNB.n56 VNB.n55 13.653
R604 VNB.n55 VNB.n54 13.653
R605 VNB.n1144 VNB.n0 13.653
R606 VNB VNB.n0 13.653
R607 VNB.n133 VNB.n132 13.653
R608 VNB.n132 VNB.n131 13.653
R609 VNB.n1152 VNB.n1149 13.577
R610 VNB.n118 VNB.n116 13.276
R611 VNB.n130 VNB.n118 13.276
R612 VNB.n166 VNB.n164 13.276
R613 VNB.n179 VNB.n166 13.276
R614 VNB.n218 VNB.n216 13.276
R615 VNB.n231 VNB.n218 13.276
R616 VNB.n270 VNB.n268 13.276
R617 VNB.n283 VNB.n270 13.276
R618 VNB.n322 VNB.n320 13.276
R619 VNB.n335 VNB.n322 13.276
R620 VNB.n374 VNB.n372 13.276
R621 VNB.n387 VNB.n374 13.276
R622 VNB.n426 VNB.n424 13.276
R623 VNB.n439 VNB.n426 13.276
R624 VNB.n478 VNB.n476 13.276
R625 VNB.n491 VNB.n478 13.276
R626 VNB.n530 VNB.n528 13.276
R627 VNB.n543 VNB.n530 13.276
R628 VNB.n598 VNB.n596 13.276
R629 VNB.n611 VNB.n598 13.276
R630 VNB.n60 VNB.n58 13.276
R631 VNB.n73 VNB.n60 13.276
R632 VNB.n650 VNB.n648 13.276
R633 VNB.n663 VNB.n650 13.276
R634 VNB.n702 VNB.n700 13.276
R635 VNB.n715 VNB.n702 13.276
R636 VNB.n754 VNB.n752 13.276
R637 VNB.n767 VNB.n754 13.276
R638 VNB.n806 VNB.n804 13.276
R639 VNB.n819 VNB.n806 13.276
R640 VNB.n874 VNB.n872 13.276
R641 VNB.n887 VNB.n874 13.276
R642 VNB.n926 VNB.n924 13.276
R643 VNB.n939 VNB.n926 13.276
R644 VNB.n978 VNB.n976 13.276
R645 VNB.n991 VNB.n978 13.276
R646 VNB.n1030 VNB.n1028 13.276
R647 VNB.n1043 VNB.n1030 13.276
R648 VNB.n1082 VNB.n1080 13.276
R649 VNB.n1095 VNB.n1082 13.276
R650 VNB.n7 VNB.n5 13.276
R651 VNB.n20 VNB.n7 13.276
R652 VNB.n142 VNB.n139 13.276
R653 VNB.n139 VNB.n136 13.276
R654 VNB.n184 VNB.n180 13.276
R655 VNB.n236 VNB.n232 13.276
R656 VNB.n288 VNB.n284 13.276
R657 VNB.n340 VNB.n336 13.276
R658 VNB.n392 VNB.n388 13.276
R659 VNB.n444 VNB.n440 13.276
R660 VNB.n496 VNB.n492 13.276
R661 VNB.n548 VNB.n544 13.276
R662 VNB.n616 VNB.n612 13.276
R663 VNB.n85 VNB.n80 13.276
R664 VNB.n94 VNB.n91 13.276
R665 VNB.n97 VNB.n94 13.276
R666 VNB.n98 VNB.n97 13.276
R667 VNB.n102 VNB.n98 13.276
R668 VNB.n105 VNB.n102 13.276
R669 VNB.n108 VNB.n105 13.276
R670 VNB.n111 VNB.n108 13.276
R671 VNB.n114 VNB.n111 13.276
R672 VNB.n642 VNB.n639 13.276
R673 VNB.n668 VNB.n664 13.276
R674 VNB.n720 VNB.n716 13.276
R675 VNB.n772 VNB.n768 13.276