* SPICE3 file created from TMRDFFRNQX1.ext - technology: sky130A

.subckt TMRDFFRNQX1 Q D CLK RN VPB VNB
M1000 a_14511_943.t4 a_10507_159.t14 VPB.t47 pshort w=2u l=0.15u
+  ad=0p pd=0u as=0p ps=0u
M1001 a_9331_943.t7 a_9331_943.t6 VPB.t22 pshort w=2u l=0.15u
+  ad=0p pd=0u as=0p ps=0u
M1002 VNB a_9009_1004.t9 a_9806_73.t0 nshort w=-1.605u l=1.765u
+  ad=4.9019p pd=41.07u as=0p ps=0u
M1003 VPB.t85 RN a_9331_943.t17 pshort w=2u l=0.15u
+  ad=0p pd=0u as=0p ps=0u
M1004 VNB a_5779_943.t12 a_7216_73.t0 nshort w=-1.605u l=1.765u
+  ad=0p pd=0u as=0p ps=0u
M1005 VNB a_10507_159.t21 a_10451_75.t0 nshort w=-1.605u l=1.765u
+  ad=0p pd=0u as=0p ps=0u
M1006 a_5457_1004.t5 a_5779_943.t7 VPB.t25 pshort w=2u l=0.15u
+  ad=0p pd=0u as=0p ps=0u
M1007 a_5327_159.t4 RN VPB.t84 pshort w=2u l=0.15u
+  ad=0p pd=0u as=0p ps=0u
M1008 VPB.t101 a_147_159.t14 a_277_1004.t6 pshort w=2u l=0.15u
+  ad=0p pd=0u as=0p ps=0u
M1009 a_15757_1005.t7 a_4151_943.t5 a_16421_1005.t7 pshort w=2u l=0.15u
+  ad=0p pd=0u as=0p ps=0u
M1010 VPB.t49 a_10507_159.t15 a_10637_1004.t4 pshort w=2u l=0.15u
+  ad=0p pd=0u as=0p ps=0u
M1011 VPB.t0 a_9331_943.t19 a_10507_159.t0 pshort w=2u l=0.15u
+  ad=0p pd=0u as=0p ps=0u
M1012 VPB.t90 RN a_10507_159.t13 pshort w=2u l=0.15u
+  ad=0p pd=0u as=0p ps=0u
M1013 a_10507_159.t1 a_10637_1004.t7 VPB.t6 pshort w=2u l=0.15u
+  ad=0p pd=0u as=0p ps=0u
M1014 a_9331_943.t14 a_10637_1004.t8 VPB.t75 pshort w=2u l=0.15u
+  ad=0p pd=0u as=0p ps=0u
M1015 a_599_943.t1 D VPB.t41 pshort w=2u l=0.15u
+  ad=0p pd=0u as=0p ps=0u
M1016 a_16421_1005.t0 a_14511_943.t6 a_15932_181.t3 pshort w=2u l=0.15u
+  ad=0p pd=0u as=0p ps=0u
M1017 a_5327_159.t2 CLK VPB.t63 pshort w=2u l=0.15u
+  ad=0p pd=0u as=0p ps=0u
M1018 VPB.t33 a_599_943.t7 a_2141_1004.t1 pshort w=2u l=0.15u
+  ad=0p pd=0u as=0p ps=0u
M1019 a_9331_943.t1 a_9009_1004.t7 VPB.t34 pshort w=2u l=0.15u
+  ad=0p pd=0u as=0p ps=0u
M1020 VPB.t57 CLK a_277_1004.t3 pshort w=2u l=0.15u
+  ad=0p pd=0u as=0p ps=0u
M1021 VPB.t28 a_5457_1004.t7 a_9009_1004.t4 pshort w=2u l=0.15u
+  ad=0p pd=0u as=0p ps=0u
M1022 VPB.t30 a_277_1004.t8 a_147_159.t1 pshort w=2u l=0.15u
+  ad=0p pd=0u as=0p ps=0u
M1023 VPB.t4 a_5457_1004.t8 a_5779_943.t0 pshort w=2u l=0.15u
+  ad=0p pd=0u as=0p ps=0u
M1024 VPB.t93 RN a_5779_943.t5 pshort w=2u l=0.15u
+  ad=0p pd=0u as=0p ps=0u
M1025 VPB.t79 a_9331_943.t21 a_9009_1004.t1 pshort w=2u l=0.15u
+  ad=0p pd=0u as=0p ps=0u
M1026 VPB.t56 CLK a_10637_1004.t6 pshort w=2u l=0.15u
+  ad=0p pd=0u as=0p ps=0u
M1027 VPB.t61 CLK a_10507_159.t7 pshort w=2u l=0.15u
+  ad=0p pd=0u as=0p ps=0u
M1028 a_9331_943.t15 a_5327_159.t8 VPB.t78 pshort w=2u l=0.15u
+  ad=0p pd=0u as=0p ps=0u
M1029 VNB a_5457_1004.t11 a_8823_75.t0 nshort w=-1.605u l=1.765u
+  ad=0p pd=0u as=0p ps=0u
M1030 a_10507_159.t12 RN VPB.t89 pshort w=2u l=0.15u
+  ad=0p pd=0u as=0p ps=0u
M1031 a_9331_943.t3 D VPB.t36 pshort w=2u l=0.15u
+  ad=0p pd=0u as=0p ps=0u
M1032 a_599_943.t5 RN VPB.t96 pshort w=2u l=0.15u
+  ad=0p pd=0u as=0p ps=0u
M1033 a_147_159.t8 a_4151_943.t7 VPB.t68 pshort w=2u l=0.15u
+  ad=0p pd=0u as=0p ps=0u
M1034 VNB a_5457_1004.t12 a_6233_75.t0 nshort w=-1.605u l=1.765u
+  ad=0p pd=0u as=0p ps=0u
M1035 VPB.t2 a_14511_943.t7 a_15757_1005.t1 pshort w=2u l=0.15u
+  ad=0p pd=0u as=0p ps=0u
M1036 a_10637_1004.t3 a_10507_159.t16 VPB.t50 pshort w=2u l=0.15u
+  ad=0p pd=0u as=0p ps=0u
M1037 a_147_159.t7 CLK VPB.t62 pshort w=2u l=0.15u
+  ad=0p pd=0u as=0p ps=0u
M1038 a_4151_943.t3 a_147_159.t16 VPB.t14 pshort w=2u l=0.15u
+  ad=0p pd=0u as=0p ps=0u
M1039 a_9009_1004.t3 a_5457_1004.t9 VPB.t16 pshort w=2u l=0.15u
+  ad=0p pd=0u as=0p ps=0u
M1040 a_15757_1005.t3 a_9331_943.t23 VPB.t1 pshort w=2u l=0.15u
+  ad=0p pd=0u as=0p ps=0u
M1041 VPB.t52 a_10507_159.t17 a_14511_943.t3 pshort w=2u l=0.15u
+  ad=0p pd=0u as=0p ps=0u
M1042 VPB.t5 a_9331_943.t4 a_9331_943.t5 pshort w=2u l=0.15u
+  ad=0p pd=0u as=0p ps=0u
M1043 VNB a_147_159.t15 a_4626_73.t0 nshort w=-1.605u l=1.765u
+  ad=0p pd=0u as=0p ps=0u
M1044 VPB.t7 a_147_159.t17 a_2141_1004.t3 pshort w=2u l=0.15u
+  ad=0p pd=0u as=0p ps=0u
M1045 VPB.t74 a_599_943.t9 a_277_1004.t4 pshort w=2u l=0.15u
+  ad=0p pd=0u as=0p ps=0u
M1046 VNB a_147_159.t24 a_91_75.t0 nshort w=-1.605u l=1.765u
+  ad=0p pd=0u as=0p ps=0u
M1047 VPB.t38 D a_5779_943.t3 pshort w=2u l=0.15u
+  ad=0p pd=0u as=0p ps=0u
M1048 VPB.t97 RN a_9009_1004.t6 pshort w=2u l=0.15u
+  ad=0p pd=0u as=0p ps=0u
M1049 VNB a_599_943.t8 a_2036_73.t0 nshort w=-1.605u l=1.765u
+  ad=0p pd=0u as=0p ps=0u
M1050 VNB a_7321_1004.t7 a_7861_75.t0 nshort w=-1.605u l=1.765u
+  ad=0p pd=0u as=0p ps=0u
M1051 VPB.t77 a_5327_159.t10 a_5457_1004.t1 pshort w=2u l=0.15u
+  ad=0p pd=0u as=0p ps=0u
M1052 VPB.t43 a_7321_1004.t5 a_5327_159.t0 pshort w=2u l=0.15u
+  ad=0p pd=0u as=0p ps=0u
M1053 VPB.t42 a_2141_1004.t6 a_147_159.t4 pshort w=2u l=0.15u
+  ad=0p pd=0u as=0p ps=0u
M1054 a_10507_159.t4 a_14511_943.t8 VPB.t35 pshort w=2u l=0.15u
+  ad=0p pd=0u as=0p ps=0u
M1055 VNB a_5327_159.t14 a_5271_75.t0 nshort w=-1.605u l=1.765u
+  ad=0p pd=0u as=0p ps=0u
M1056 a_9331_943.t16 RN VPB.t83 pshort w=2u l=0.15u
+  ad=0p pd=0u as=0p ps=0u
M1057 a_147_159.t12 RN VPB.t82 pshort w=2u l=0.15u
+  ad=0p pd=0u as=0p ps=0u
M1058 a_4151_943.t2 a_147_159.t18 VPB.t8 pshort w=2u l=0.15u
+  ad=0p pd=0u as=0p ps=0u
M1059 a_7321_1004.t1 a_5327_159.t11 VPB.t23 pshort w=2u l=0.15u
+  ad=0p pd=0u as=0p ps=0u
M1060 a_15932_181.t6 a_4151_943.t8 a_16421_1005.t6 pshort w=2u l=0.15u
+  ad=0p pd=0u as=0p ps=0u
M1061 VPB.t10 a_9331_943.t26 a_10637_1004.t2 pshort w=2u l=0.15u
+  ad=0p pd=0u as=0p ps=0u
M1062 VNB a_9331_943.t24 a_15652_73.t0 nshort w=-1.605u l=1.765u
+  ad=0p pd=0u as=0p ps=0u
M1063 VNB a_10507_159.t18 a_14986_73.t0 nshort w=-1.605u l=1.765u
+  ad=0p pd=0u as=0p ps=0u
M1064 a_15757_1005.t0 a_14511_943.t9 VPB.t54 pshort w=2u l=0.15u
+  ad=0p pd=0u as=0p ps=0u
M1065 VPB.t51 a_10507_159.t19 a_14511_943.t2 pshort w=2u l=0.15u
+  ad=0p pd=0u as=0p ps=0u
M1066 VPB.t53 a_10507_159.t20 a_9331_943.t9 pshort w=2u l=0.15u
+  ad=0p pd=0u as=0p ps=0u
M1067 VPB.t100 a_15932_181.t8 a_17723_182.t1 pshort w=2u l=0.15u
+  ad=0p pd=0u as=0p ps=0u
M1068 a_277_1004.t5 a_147_159.t19 VPB.t9 pshort w=2u l=0.15u
+  ad=0p pd=0u as=0p ps=0u
M1069 VPB.t67 a_9009_1004.t8 a_9331_943.t11 pshort w=2u l=0.15u
+  ad=0p pd=0u as=0p ps=0u
M1070 a_16421_1005.t4 a_4151_943.t10 a_15757_1005.t6 pshort w=2u l=0.15u
+  ad=0p pd=0u as=0p ps=0u
M1071 VNB a_9331_943.t20 a_13041_75.t0 nshort w=-1.605u l=1.765u
+  ad=0p pd=0u as=0p ps=0u
M1072 a_10507_159.t2 a_9331_943.t27 VPB.t12 pshort w=2u l=0.15u
+  ad=0p pd=0u as=0p ps=0u
M1073 a_10637_1004.t1 a_9331_943.t28 VPB.t45 pshort w=2u l=0.15u
+  ad=0p pd=0u as=0p ps=0u
M1074 a_10507_159.t11 RN VPB.t88 pshort w=2u l=0.15u
+  ad=0p pd=0u as=0p ps=0u
M1075 VNB a_277_1004.t7 a_3643_75.t0 nshort w=-1.605u l=1.765u
+  ad=0p pd=0u as=0p ps=0u
M1076 a_7321_1004.t4 a_5779_943.t8 VPB.t19 pshort w=2u l=0.15u
+  ad=0p pd=0u as=0p ps=0u
M1077 VPB.t32 a_277_1004.t10 a_599_943.t3 pshort w=2u l=0.15u
+  ad=0p pd=0u as=0p ps=0u
M1078 a_15932_181.t2 a_14511_943.t10 a_16421_1005.t1 pshort w=2u l=0.15u
+  ad=0p pd=0u as=0p ps=0u
M1079 VPB.t94 RN a_599_943.t4 pshort w=2u l=0.15u
+  ad=0p pd=0u as=0p ps=0u
M1080 VPB.t26 a_4151_943.t11 a_147_159.t0 pshort w=2u l=0.15u
+  ad=0p pd=0u as=0p ps=0u
M1081 VNB a_4151_943.t9 a_16984_73.t0 nshort w=-1.605u l=1.765u
+  ad=0p pd=0u as=0p ps=0u
M1082 VPB.t70 a_5779_943.t9 a_5457_1004.t4 pshort w=2u l=0.15u
+  ad=0p pd=0u as=0p ps=0u
M1083 VPB.t95 RN a_5327_159.t3 pshort w=2u l=0.15u
+  ad=0p pd=0u as=0p ps=0u
M1084 a_16421_1005.t3 a_9331_943.t30 a_15757_1005.t5 pshort w=2u l=0.15u
+  ad=0p pd=0u as=0p ps=0u
M1085 a_2141_1004.t0 a_599_943.t10 VPB.t29 pshort w=2u l=0.15u
+  ad=0p pd=0u as=0p ps=0u
M1086 a_277_1004.t2 CLK VPB.t59 pshort w=2u l=0.15u
+  ad=0p pd=0u as=0p ps=0u
M1087 a_147_159.t2 a_277_1004.t11 VPB.t31 pshort w=2u l=0.15u
+  ad=0p pd=0u as=0p ps=0u
M1088 a_5779_943.t1 a_5457_1004.t10 VPB.t20 pshort w=2u l=0.15u
+  ad=0p pd=0u as=0p ps=0u
M1089 a_10637_1004.t5 CLK VPB.t55 pshort w=2u l=0.15u
+  ad=0p pd=0u as=0p ps=0u
M1090 a_10507_159.t6 CLK VPB.t60 pshort w=2u l=0.15u
+  ad=0p pd=0u as=0p ps=0u
M1091 VNB a_10637_1004.t9 a_14003_75.t0 nshort w=-1.605u l=1.765u
+  ad=0p pd=0u as=0p ps=0u
M1092 VNB a_2141_1004.t5 a_2681_75.t0 nshort w=-1.605u l=1.765u
+  ad=0p pd=0u as=0p ps=0u
M1093 a_17723_182.t0 a_15932_181.t9 VPB.t99 pshort w=2u l=0.15u
+  ad=0p pd=0u as=0p ps=0u
M1094 VPB.t76 a_10637_1004.t11 a_10507_159.t8 pshort w=2u l=0.15u
+  ad=0p pd=0u as=0p ps=0u
M1095 VPB.t71 a_10637_1004.t12 a_9331_943.t12 pshort w=2u l=0.15u
+  ad=0p pd=0u as=0p ps=0u
M1096 VPB.t39 D a_599_943.t0 pshort w=2u l=0.15u
+  ad=0p pd=0u as=0p ps=0u
M1097 VPB.t92 RN a_147_159.t11 pshort w=2u l=0.15u
+  ad=0p pd=0u as=0p ps=0u
M1098 VNB a_9331_943.t29 a_12396_73.t0 nshort w=-1.605u l=1.765u
+  ad=0p pd=0u as=0p ps=0u
M1099 a_599_943.t2 a_277_1004.t12 VPB.t3 pshort w=2u l=0.15u
+  ad=0p pd=0u as=0p ps=0u
M1100 VPB.t66 CLK a_5457_1004.t3 pshort w=2u l=0.15u
+  ad=0p pd=0u as=0p ps=0u
M1101 VPB.t64 CLK a_5327_159.t1 pshort w=2u l=0.15u
+  ad=0p pd=0u as=0p ps=0u
M1102 a_2141_1004.t2 a_147_159.t22 VPB.t11 pshort w=2u l=0.15u
+  ad=0p pd=0u as=0p ps=0u
M1103 a_277_1004.t0 a_599_943.t11 VPB.t17 pshort w=2u l=0.15u
+  ad=0p pd=0u as=0p ps=0u
M1104 a_147_159.t10 RN VPB.t81 pshort w=2u l=0.15u
+  ad=0p pd=0u as=0p ps=0u
M1105 a_5779_943.t2 D VPB.t37 pshort w=2u l=0.15u
+  ad=0p pd=0u as=0p ps=0u
M1106 a_9009_1004.t5 RN VPB.t86 pshort w=2u l=0.15u
+  ad=0p pd=0u as=0p ps=0u
M1107 a_5327_159.t6 a_7321_1004.t6 VPB.t98 pshort w=2u l=0.15u
+  ad=0p pd=0u as=0p ps=0u
M1108 VPB.t21 a_5327_159.t12 a_9331_943.t0 pshort w=2u l=0.15u
+  ad=0p pd=0u as=0p ps=0u
M1109 a_147_159.t5 a_2141_1004.t7 VPB.t44 pshort w=2u l=0.15u
+  ad=0p pd=0u as=0p ps=0u
M1110 a_5457_1004.t0 a_5327_159.t13 VPB.t73 pshort w=2u l=0.15u
+  ad=0p pd=0u as=0p ps=0u
M1111 VPB.t87 RN a_10507_159.t10 pshort w=2u l=0.15u
+  ad=0p pd=0u as=0p ps=0u
M1112 VPB.t40 D a_9331_943.t2 pshort w=2u l=0.15u
+  ad=0p pd=0u as=0p ps=0u
M1113 VNB a_277_1004.t9 a_1053_75.t0 nshort w=-1.605u l=1.765u
+  ad=0p pd=0u as=0p ps=0u
M1114 VPB.t58 CLK a_147_159.t6 pshort w=2u l=0.15u
+  ad=0p pd=0u as=0p ps=0u
M1115 VPB.t69 a_5779_943.t10 a_7321_1004.t3 pshort w=2u l=0.15u
+  ad=0p pd=0u as=0p ps=0u
M1116 VPB.t13 a_147_159.t23 a_4151_943.t1 pshort w=2u l=0.15u
+  ad=0p pd=0u as=0p ps=0u
M1117 VPB.t24 a_9331_943.t32 a_15757_1005.t2 pshort w=2u l=0.15u
+  ad=0p pd=0u as=0p ps=0u
M1118 a_14511_943.t1 a_10507_159.t23 VPB.t46 pshort w=2u l=0.15u
+  ad=0p pd=0u as=0p ps=0u
M1119 a_9331_943.t8 a_10507_159.t24 VPB.t48 pshort w=2u l=0.15u
+  ad=0p pd=0u as=0p ps=0u
M1120 VNB a_9331_943.t31 a_16318_73.t0 nshort w=-1.605u l=1.765u
+  ad=0p pd=0u as=0p ps=0u
M1121 a_9009_1004.t0 a_9331_943.t33 VPB.t18 pshort w=2u l=0.15u
+  ad=0p pd=0u as=0p ps=0u
M1122 a_5779_943.t4 RN VPB.t91 pshort w=2u l=0.15u
+  ad=0p pd=0u as=0p ps=0u
M1123 VNB a_10637_1004.t10 a_11413_75.t0 nshort w=-1.605u l=1.765u
+  ad=0p pd=0u as=0p ps=0u
M1124 a_5457_1004.t2 CLK VPB.t65 pshort w=2u l=0.15u
+  ad=0p pd=0u as=0p ps=0u
M1125 a_15757_1005.t4 a_9331_943.t34 a_16421_1005.t2 pshort w=2u l=0.15u
+  ad=0p pd=0u as=0p ps=0u
M1126 VPB.t27 a_14511_943.t13 a_10507_159.t3 pshort w=2u l=0.15u
+  ad=0p pd=0u as=0p ps=0u
M1127 VPB.t80 RN a_147_159.t9 pshort w=2u l=0.15u
+  ad=0p pd=0u as=0p ps=0u
M1128 VPB.t15 a_147_159.t25 a_4151_943.t0 pshort w=2u l=0.15u
+  ad=0p pd=0u as=0p ps=0u
M1129 VPB.t72 a_5327_159.t15 a_7321_1004.t0 pshort w=2u l=0.15u
+  ad=0p pd=0u as=0p ps=0u
M1130 a_16421_1005.t5 a_4151_943.t13 a_15932_181.t5 pshort w=2u l=0.15u
+  ad=0p pd=0u as=0p ps=0u
C0 VPB RN 0.50fF
C1 D CLK 1.65fF
C2 D RN 12.41fF
C3 CLK RN 1.02fF
C4 VPB D 0.15fF
C5 VPB CLK 3.49fF
R0 a_10507_159.n23 a_10507_159.t15 512.525
R1 a_10507_159.n8 a_10507_159.t17 480.392
R2 a_10507_159.n21 a_10507_159.t20 472.359
R3 a_10507_159.n6 a_10507_159.t19 472.359
R4 a_10507_159.n8 a_10507_159.t14 403.272
R5 a_10507_159.n21 a_10507_159.t24 384.527
R6 a_10507_159.n6 a_10507_159.t23 384.527
R7 a_10507_159.n23 a_10507_159.t16 371.139
R8 a_10507_159.n24 a_10507_159.t21 324.268
R9 a_10507_159.n9 a_10507_159.t18 320.08
R10 a_10507_159.n22 a_10507_159.t25 277.772
R11 a_10507_159.n7 a_10507_159.t22 277.772
R12 a_10507_159.n20 a_10507_159.n19 249.704
R13 a_10507_159.n30 a_10507_159.n28 249.704
R14 a_10507_159.n20 a_10507_159.n15 127.74
R15 a_10507_159.n28 a_10507_159.n5 127.74
R16 a_10507_159.n24 a_10507_159.n23 119.654
R17 a_10507_159.n25 a_10507_159.n24 83.572
R18 a_10507_159.n4 a_10507_159.n3 79.232
R19 a_10507_159.n14 a_10507_159.n13 79.232
R20 a_10507_159.n10 a_10507_159.n7 76.499
R21 a_10507_159.n25 a_10507_159.n22 76
R22 a_10507_159.n26 a_10507_159.n20 76
R23 a_10507_159.n10 a_10507_159.n9 76
R24 a_10507_159.n28 a_10507_159.n27 76
R25 a_10507_159.n22 a_10507_159.n21 67.001
R26 a_10507_159.n7 a_10507_159.n6 67.001
R27 a_10507_159.n15 a_10507_159.n14 63.152
R28 a_10507_159.n5 a_10507_159.n4 63.152
R29 a_10507_159.n9 a_10507_159.n8 55.388
R30 a_10507_159.n31 a_10507_159.n0 55.263
R31 a_10507_159.n19 a_10507_159.n18 30
R32 a_10507_159.n30 a_10507_159.n29 30
R33 a_10507_159.n17 a_10507_159.n16 24.383
R34 a_10507_159.n19 a_10507_159.n17 23.684
R35 a_10507_159.n31 a_10507_159.n30 23.684
R36 a_10507_159.n15 a_10507_159.n11 16.08
R37 a_10507_159.n14 a_10507_159.n12 16.08
R38 a_10507_159.n5 a_10507_159.n1 16.08
R39 a_10507_159.n4 a_10507_159.n2 16.08
R40 a_10507_159.n11 a_10507_159.t13 14.282
R41 a_10507_159.n11 a_10507_159.t11 14.282
R42 a_10507_159.n12 a_10507_159.t7 14.282
R43 a_10507_159.n12 a_10507_159.t6 14.282
R44 a_10507_159.n13 a_10507_159.t0 14.282
R45 a_10507_159.n13 a_10507_159.t2 14.282
R46 a_10507_159.n1 a_10507_159.t3 14.282
R47 a_10507_159.n1 a_10507_159.t4 14.282
R48 a_10507_159.n2 a_10507_159.t10 14.282
R49 a_10507_159.n2 a_10507_159.t12 14.282
R50 a_10507_159.n3 a_10507_159.t8 14.282
R51 a_10507_159.n3 a_10507_159.t1 14.282
R52 a_10507_159.n26 a_10507_159.n25 4.035
R53 a_10507_159.n27 a_10507_159.n26 3.491
R54 a_10507_159.n27 a_10507_159.n10 1.315
R55 VPB VPB.n1609 126.832
R56 VPB.n40 VPB.n38 94.117
R57 VPB.n1531 VPB.n1529 94.117
R58 VPB.n1468 VPB.n1466 94.117
R59 VPB.n1385 VPB.n1383 94.117
R60 VPB.n1302 VPB.n1300 94.117
R61 VPB.n1239 VPB.n1237 94.117
R62 VPB.n1156 VPB.n1154 94.117
R63 VPB.n1073 VPB.n1071 94.117
R64 VPB.n1010 VPB.n1008 94.117
R65 VPB.n927 VPB.n925 94.117
R66 VPB.n115 VPB.n113 94.117
R67 VPB.n845 VPB.n843 94.117
R68 VPB.n762 VPB.n760 94.117
R69 VPB.n679 VPB.n677 94.117
R70 VPB.n616 VPB.n614 94.117
R71 VPB.n533 VPB.n531 94.117
R72 VPB.n450 VPB.n448 94.117
R73 VPB.n387 VPB.n385 94.117
R74 VPB.n324 VPB.n322 94.117
R75 VPB.n269 VPB.n267 94.117
R76 VPB.n214 VPB.n212 91.036
R77 VPB.n463 VPB.n462 80.104
R78 VPB.n546 VPB.n545 80.104
R79 VPB.n692 VPB.n691 80.104
R80 VPB.n775 VPB.n774 80.104
R81 VPB.n125 VPB.n124 80.104
R82 VPB.n940 VPB.n939 80.104
R83 VPB.n1086 VPB.n1085 80.104
R84 VPB.n1169 VPB.n1168 80.104
R85 VPB.n1315 VPB.n1314 80.104
R86 VPB.n1398 VPB.n1397 80.104
R87 VPB.n1544 VPB.n1543 80.104
R88 VPB.n50 VPB.n49 80.104
R89 VPB.n175 VPB.n169 76.136
R90 VPB.n175 VPB.n174 76
R91 VPB.n179 VPB.n178 76
R92 VPB.n185 VPB.n184 76
R93 VPB.n189 VPB.n188 76
R94 VPB.n216 VPB.n215 76
R95 VPB.n220 VPB.n219 76
R96 VPB.n224 VPB.n223 76
R97 VPB.n228 VPB.n227 76
R98 VPB.n232 VPB.n231 76
R99 VPB.n236 VPB.n235 76
R100 VPB.n240 VPB.n239 76
R101 VPB.n244 VPB.n243 76
R102 VPB.n271 VPB.n270 76
R103 VPB.n275 VPB.n274 76
R104 VPB.n279 VPB.n278 76
R105 VPB.n283 VPB.n282 76
R106 VPB.n287 VPB.n286 76
R107 VPB.n291 VPB.n290 76
R108 VPB.n295 VPB.n294 76
R109 VPB.n299 VPB.n298 76
R110 VPB.n326 VPB.n325 76
R111 VPB.n331 VPB.n330 76
R112 VPB.n336 VPB.n335 76
R113 VPB.n343 VPB.n342 76
R114 VPB.n348 VPB.n347 76
R115 VPB.n353 VPB.n352 76
R116 VPB.n358 VPB.n357 76
R117 VPB.n362 VPB.n361 76
R118 VPB.n389 VPB.n388 76
R119 VPB.n394 VPB.n393 76
R120 VPB.n399 VPB.n398 76
R121 VPB.n406 VPB.n405 76
R122 VPB.n411 VPB.n410 76
R123 VPB.n416 VPB.n415 76
R124 VPB.n421 VPB.n420 76
R125 VPB.n425 VPB.n424 76
R126 VPB.n452 VPB.n451 76
R127 VPB.n456 VPB.n455 76
R128 VPB.n461 VPB.n460 76
R129 VPB.n466 VPB.n465 76
R130 VPB.n473 VPB.n472 76
R131 VPB.n478 VPB.n477 76
R132 VPB.n483 VPB.n482 76
R133 VPB.n490 VPB.n489 76
R134 VPB.n495 VPB.n494 76
R135 VPB.n500 VPB.n499 76
R136 VPB.n504 VPB.n503 76
R137 VPB.n508 VPB.n507 76
R138 VPB.n535 VPB.n534 76
R139 VPB.n539 VPB.n538 76
R140 VPB.n544 VPB.n543 76
R141 VPB.n549 VPB.n548 76
R142 VPB.n556 VPB.n555 76
R143 VPB.n561 VPB.n560 76
R144 VPB.n566 VPB.n565 76
R145 VPB.n573 VPB.n572 76
R146 VPB.n578 VPB.n577 76
R147 VPB.n583 VPB.n582 76
R148 VPB.n587 VPB.n586 76
R149 VPB.n591 VPB.n590 76
R150 VPB.n618 VPB.n617 76
R151 VPB.n623 VPB.n622 76
R152 VPB.n628 VPB.n627 76
R153 VPB.n635 VPB.n634 76
R154 VPB.n640 VPB.n639 76
R155 VPB.n645 VPB.n644 76
R156 VPB.n650 VPB.n649 76
R157 VPB.n654 VPB.n653 76
R158 VPB.n681 VPB.n680 76
R159 VPB.n685 VPB.n684 76
R160 VPB.n690 VPB.n689 76
R161 VPB.n695 VPB.n694 76
R162 VPB.n702 VPB.n701 76
R163 VPB.n707 VPB.n706 76
R164 VPB.n712 VPB.n711 76
R165 VPB.n719 VPB.n718 76
R166 VPB.n724 VPB.n723 76
R167 VPB.n729 VPB.n728 76
R168 VPB.n733 VPB.n732 76
R169 VPB.n737 VPB.n736 76
R170 VPB.n764 VPB.n763 76
R171 VPB.n768 VPB.n767 76
R172 VPB.n773 VPB.n772 76
R173 VPB.n778 VPB.n777 76
R174 VPB.n785 VPB.n784 76
R175 VPB.n790 VPB.n789 76
R176 VPB.n795 VPB.n794 76
R177 VPB.n802 VPB.n801 76
R178 VPB.n807 VPB.n806 76
R179 VPB.n812 VPB.n811 76
R180 VPB.n816 VPB.n815 76
R181 VPB.n820 VPB.n819 76
R182 VPB.n847 VPB.n846 76
R183 VPB.n852 VPB.n851 76
R184 VPB.n857 VPB.n856 76
R185 VPB.n864 VPB.n863 76
R186 VPB.n869 VPB.n868 76
R187 VPB.n874 VPB.n873 76
R188 VPB.n889 VPB.n885 76
R189 VPB.n894 VPB.n893 76
R190 VPB.n898 VPB.n897 76
R191 VPB.n902 VPB.n901 76
R192 VPB.n929 VPB.n928 76
R193 VPB.n933 VPB.n932 76
R194 VPB.n938 VPB.n937 76
R195 VPB.n943 VPB.n942 76
R196 VPB.n950 VPB.n949 76
R197 VPB.n955 VPB.n954 76
R198 VPB.n960 VPB.n959 76
R199 VPB.n967 VPB.n966 76
R200 VPB.n972 VPB.n971 76
R201 VPB.n977 VPB.n976 76
R202 VPB.n981 VPB.n980 76
R203 VPB.n985 VPB.n984 76
R204 VPB.n1012 VPB.n1011 76
R205 VPB.n1017 VPB.n1016 76
R206 VPB.n1022 VPB.n1021 76
R207 VPB.n1029 VPB.n1028 76
R208 VPB.n1034 VPB.n1033 76
R209 VPB.n1039 VPB.n1038 76
R210 VPB.n1044 VPB.n1043 76
R211 VPB.n1048 VPB.n1047 76
R212 VPB.n1075 VPB.n1074 76
R213 VPB.n1079 VPB.n1078 76
R214 VPB.n1084 VPB.n1083 76
R215 VPB.n1089 VPB.n1088 76
R216 VPB.n1096 VPB.n1095 76
R217 VPB.n1101 VPB.n1100 76
R218 VPB.n1106 VPB.n1105 76
R219 VPB.n1113 VPB.n1112 76
R220 VPB.n1118 VPB.n1117 76
R221 VPB.n1123 VPB.n1122 76
R222 VPB.n1127 VPB.n1126 76
R223 VPB.n1131 VPB.n1130 76
R224 VPB.n1158 VPB.n1157 76
R225 VPB.n1162 VPB.n1161 76
R226 VPB.n1167 VPB.n1166 76
R227 VPB.n1172 VPB.n1171 76
R228 VPB.n1179 VPB.n1178 76
R229 VPB.n1184 VPB.n1183 76
R230 VPB.n1189 VPB.n1188 76
R231 VPB.n1196 VPB.n1195 76
R232 VPB.n1201 VPB.n1200 76
R233 VPB.n1206 VPB.n1205 76
R234 VPB.n1210 VPB.n1209 76
R235 VPB.n1214 VPB.n1213 76
R236 VPB.n1241 VPB.n1240 76
R237 VPB.n1246 VPB.n1245 76
R238 VPB.n1251 VPB.n1250 76
R239 VPB.n1258 VPB.n1257 76
R240 VPB.n1263 VPB.n1262 76
R241 VPB.n1268 VPB.n1267 76
R242 VPB.n1273 VPB.n1272 76
R243 VPB.n1277 VPB.n1276 76
R244 VPB.n1304 VPB.n1303 76
R245 VPB.n1308 VPB.n1307 76
R246 VPB.n1313 VPB.n1312 76
R247 VPB.n1318 VPB.n1317 76
R248 VPB.n1325 VPB.n1324 76
R249 VPB.n1330 VPB.n1329 76
R250 VPB.n1335 VPB.n1334 76
R251 VPB.n1342 VPB.n1341 76
R252 VPB.n1347 VPB.n1346 76
R253 VPB.n1352 VPB.n1351 76
R254 VPB.n1356 VPB.n1355 76
R255 VPB.n1360 VPB.n1359 76
R256 VPB.n1387 VPB.n1386 76
R257 VPB.n1391 VPB.n1390 76
R258 VPB.n1396 VPB.n1395 76
R259 VPB.n1401 VPB.n1400 76
R260 VPB.n1408 VPB.n1407 76
R261 VPB.n1413 VPB.n1412 76
R262 VPB.n1418 VPB.n1417 76
R263 VPB.n1425 VPB.n1424 76
R264 VPB.n1430 VPB.n1429 76
R265 VPB.n1435 VPB.n1434 76
R266 VPB.n1439 VPB.n1438 76
R267 VPB.n1443 VPB.n1442 76
R268 VPB.n1470 VPB.n1469 76
R269 VPB.n1475 VPB.n1474 76
R270 VPB.n1480 VPB.n1479 76
R271 VPB.n1487 VPB.n1486 76
R272 VPB.n1492 VPB.n1491 76
R273 VPB.n1497 VPB.n1496 76
R274 VPB.n1502 VPB.n1501 76
R275 VPB.n1506 VPB.n1505 76
R276 VPB.n1533 VPB.n1532 76
R277 VPB.n1537 VPB.n1536 76
R278 VPB.n1542 VPB.n1541 76
R279 VPB.n1547 VPB.n1546 76
R280 VPB.n1554 VPB.n1553 76
R281 VPB.n1559 VPB.n1558 76
R282 VPB.n1564 VPB.n1563 76
R283 VPB.n1571 VPB.n1570 76
R284 VPB.n1576 VPB.n1575 76
R285 VPB.n1581 VPB.n1580 76
R286 VPB.n1585 VPB.n1584 76
R287 VPB.n1589 VPB.n1588 76
R288 VPB.n1602 VPB.n1601 76
R289 VPB.n492 VPB.n491 75.654
R290 VPB.n575 VPB.n574 75.654
R291 VPB.n721 VPB.n720 75.654
R292 VPB.n804 VPB.n803 75.654
R293 VPB.n887 VPB.n886 75.654
R294 VPB.n969 VPB.n968 75.654
R295 VPB.n1115 VPB.n1114 75.654
R296 VPB.n1198 VPB.n1197 75.654
R297 VPB.n1344 VPB.n1343 75.654
R298 VPB.n1427 VPB.n1426 75.654
R299 VPB.n1573 VPB.n1572 75.654
R300 VPB.n72 VPB.n71 75.654
R301 VPB.n182 VPB.n181 68.979
R302 VPB.n172 VPB.n171 64.528
R303 VPB.n22 VPB.n21 61.764
R304 VPB.n1513 VPB.n1512 61.764
R305 VPB.n1450 VPB.n1449 61.764
R306 VPB.n1367 VPB.n1366 61.764
R307 VPB.n1284 VPB.n1283 61.764
R308 VPB.n1221 VPB.n1220 61.764
R309 VPB.n1138 VPB.n1137 61.764
R310 VPB.n1055 VPB.n1054 61.764
R311 VPB.n992 VPB.n991 61.764
R312 VPB.n909 VPB.n908 61.764
R313 VPB.n90 VPB.n89 61.764
R314 VPB.n827 VPB.n826 61.764
R315 VPB.n744 VPB.n743 61.764
R316 VPB.n661 VPB.n660 61.764
R317 VPB.n598 VPB.n597 61.764
R318 VPB.n515 VPB.n514 61.764
R319 VPB.n432 VPB.n431 61.764
R320 VPB.n369 VPB.n368 61.764
R321 VPB.n306 VPB.n305 61.764
R322 VPB.n251 VPB.n250 61.764
R323 VPB.n196 VPB.n195 61.764
R324 VPB.n354 VPB.t1 55.465
R325 VPB.n327 VPB.t2 55.465
R326 VPB.n78 VPB.t9 55.106
R327 VPB.n1577 VPB.t3 55.106
R328 VPB.n1498 VPB.t29 55.106
R329 VPB.n1431 VPB.t44 55.106
R330 VPB.n1348 VPB.t31 55.106
R331 VPB.n1269 VPB.t14 55.106
R332 VPB.n1202 VPB.t73 55.106
R333 VPB.n1119 VPB.t20 55.106
R334 VPB.n1040 VPB.t19 55.106
R335 VPB.n973 VPB.t98 55.106
R336 VPB.n890 VPB.t16 55.106
R337 VPB.n105 VPB.t34 55.106
R338 VPB.n808 VPB.t50 55.106
R339 VPB.n725 VPB.t75 55.106
R340 VPB.n646 VPB.t22 55.106
R341 VPB.n579 VPB.t12 55.106
R342 VPB.n496 VPB.t6 55.106
R343 VPB.n417 VPB.t47 55.106
R344 VPB.n180 VPB.t99 55.106
R345 VPB.n170 VPB.t100 55.106
R346 VPB.n45 VPB.t74 55.106
R347 VPB.n1538 VPB.t94 55.106
R348 VPB.n1471 VPB.t7 55.106
R349 VPB.n1392 VPB.t80 55.106
R350 VPB.n1309 VPB.t26 55.106
R351 VPB.n1242 VPB.t15 55.106
R352 VPB.n1163 VPB.t70 55.106
R353 VPB.n1080 VPB.t93 55.106
R354 VPB.n1013 VPB.t72 55.106
R355 VPB.n934 VPB.t95 55.106
R356 VPB.n120 VPB.t79 55.106
R357 VPB.n848 VPB.t21 55.106
R358 VPB.n769 VPB.t10 55.106
R359 VPB.n686 VPB.t85 55.106
R360 VPB.n619 VPB.t53 55.106
R361 VPB.n540 VPB.t90 55.106
R362 VPB.n457 VPB.t27 55.106
R363 VPB.n390 VPB.t51 55.106
R364 VPB.n333 VPB.n332 48.952
R365 VPB.n396 VPB.n395 48.952
R366 VPB.n470 VPB.n469 48.952
R367 VPB.n553 VPB.n552 48.952
R368 VPB.n625 VPB.n624 48.952
R369 VPB.n699 VPB.n698 48.952
R370 VPB.n782 VPB.n781 48.952
R371 VPB.n854 VPB.n853 48.952
R372 VPB.n129 VPB.n128 48.952
R373 VPB.n947 VPB.n946 48.952
R374 VPB.n1019 VPB.n1018 48.952
R375 VPB.n1093 VPB.n1092 48.952
R376 VPB.n1176 VPB.n1175 48.952
R377 VPB.n1248 VPB.n1247 48.952
R378 VPB.n1322 VPB.n1321 48.952
R379 VPB.n1405 VPB.n1404 48.952
R380 VPB.n1477 VPB.n1476 48.952
R381 VPB.n1551 VPB.n1550 48.952
R382 VPB.n54 VPB.n53 48.952
R383 VPB.n350 VPB.n349 44.502
R384 VPB.n413 VPB.n412 44.502
R385 VPB.n487 VPB.n486 44.502
R386 VPB.n570 VPB.n569 44.502
R387 VPB.n642 VPB.n641 44.502
R388 VPB.n716 VPB.n715 44.502
R389 VPB.n799 VPB.n798 44.502
R390 VPB.n871 VPB.n870 44.502
R391 VPB.n143 VPB.n142 44.502
R392 VPB.n964 VPB.n963 44.502
R393 VPB.n1036 VPB.n1035 44.502
R394 VPB.n1110 VPB.n1109 44.502
R395 VPB.n1193 VPB.n1192 44.502
R396 VPB.n1265 VPB.n1264 44.502
R397 VPB.n1339 VPB.n1338 44.502
R398 VPB.n1422 VPB.n1421 44.502
R399 VPB.n1494 VPB.n1493 44.502
R400 VPB.n1568 VPB.n1567 44.502
R401 VPB.n68 VPB.n67 44.502
R402 VPB.n338 VPB.n337 41.183
R403 VPB.n66 VPB.n14 40.824
R404 VPB.n57 VPB.n15 40.824
R405 VPB.n1566 VPB.n1565 40.824
R406 VPB.n1549 VPB.n1548 40.824
R407 VPB.n1482 VPB.n1481 40.824
R408 VPB.n1420 VPB.n1419 40.824
R409 VPB.n1403 VPB.n1402 40.824
R410 VPB.n1337 VPB.n1336 40.824
R411 VPB.n1320 VPB.n1319 40.824
R412 VPB.n1253 VPB.n1252 40.824
R413 VPB.n1191 VPB.n1190 40.824
R414 VPB.n1174 VPB.n1173 40.824
R415 VPB.n1108 VPB.n1107 40.824
R416 VPB.n1091 VPB.n1090 40.824
R417 VPB.n1024 VPB.n1023 40.824
R418 VPB.n962 VPB.n961 40.824
R419 VPB.n945 VPB.n944 40.824
R420 VPB.n141 VPB.n82 40.824
R421 VPB.n132 VPB.n83 40.824
R422 VPB.n859 VPB.n858 40.824
R423 VPB.n797 VPB.n796 40.824
R424 VPB.n780 VPB.n779 40.824
R425 VPB.n714 VPB.n713 40.824
R426 VPB.n697 VPB.n696 40.824
R427 VPB.n630 VPB.n629 40.824
R428 VPB.n568 VPB.n567 40.824
R429 VPB.n551 VPB.n550 40.824
R430 VPB.n485 VPB.n484 40.824
R431 VPB.n468 VPB.n467 40.824
R432 VPB.n401 VPB.n400 40.824
R433 VPB.n1606 VPB.n1602 20.452
R434 VPB.n169 VPB.n166 20.452
R435 VPB.n340 VPB.n339 17.801
R436 VPB.n403 VPB.n402 17.801
R437 VPB.n475 VPB.n474 17.801
R438 VPB.n558 VPB.n557 17.801
R439 VPB.n632 VPB.n631 17.801
R440 VPB.n704 VPB.n703 17.801
R441 VPB.n787 VPB.n786 17.801
R442 VPB.n861 VPB.n860 17.801
R443 VPB.n134 VPB.n133 17.801
R444 VPB.n952 VPB.n951 17.801
R445 VPB.n1026 VPB.n1025 17.801
R446 VPB.n1098 VPB.n1097 17.801
R447 VPB.n1181 VPB.n1180 17.801
R448 VPB.n1255 VPB.n1254 17.801
R449 VPB.n1327 VPB.n1326 17.801
R450 VPB.n1410 VPB.n1409 17.801
R451 VPB.n1484 VPB.n1483 17.801
R452 VPB.n1556 VPB.n1555 17.801
R453 VPB.n59 VPB.n58 17.801
R454 VPB.n14 VPB.t59 14.282
R455 VPB.n14 VPB.t101 14.282
R456 VPB.n15 VPB.t17 14.282
R457 VPB.n15 VPB.t57 14.282
R458 VPB.n1565 VPB.t41 14.282
R459 VPB.n1565 VPB.t32 14.282
R460 VPB.n1548 VPB.t96 14.282
R461 VPB.n1548 VPB.t39 14.282
R462 VPB.n1481 VPB.t11 14.282
R463 VPB.n1481 VPB.t33 14.282
R464 VPB.n1419 VPB.t62 14.282
R465 VPB.n1419 VPB.t42 14.282
R466 VPB.n1402 VPB.t82 14.282
R467 VPB.n1402 VPB.t58 14.282
R468 VPB.n1336 VPB.t81 14.282
R469 VPB.n1336 VPB.t30 14.282
R470 VPB.n1319 VPB.t68 14.282
R471 VPB.n1319 VPB.t92 14.282
R472 VPB.n1252 VPB.t8 14.282
R473 VPB.n1252 VPB.t13 14.282
R474 VPB.n1190 VPB.t65 14.282
R475 VPB.n1190 VPB.t77 14.282
R476 VPB.n1173 VPB.t25 14.282
R477 VPB.n1173 VPB.t66 14.282
R478 VPB.n1107 VPB.t37 14.282
R479 VPB.n1107 VPB.t4 14.282
R480 VPB.n1090 VPB.t91 14.282
R481 VPB.n1090 VPB.t38 14.282
R482 VPB.n1023 VPB.t23 14.282
R483 VPB.n1023 VPB.t69 14.282
R484 VPB.n961 VPB.t63 14.282
R485 VPB.n961 VPB.t43 14.282
R486 VPB.n944 VPB.t84 14.282
R487 VPB.n944 VPB.t64 14.282
R488 VPB.n82 VPB.t86 14.282
R489 VPB.n82 VPB.t28 14.282
R490 VPB.n83 VPB.t18 14.282
R491 VPB.n83 VPB.t97 14.282
R492 VPB.n858 VPB.t78 14.282
R493 VPB.n858 VPB.t67 14.282
R494 VPB.n796 VPB.t55 14.282
R495 VPB.n796 VPB.t49 14.282
R496 VPB.n779 VPB.t45 14.282
R497 VPB.n779 VPB.t56 14.282
R498 VPB.n713 VPB.t36 14.282
R499 VPB.n713 VPB.t71 14.282
R500 VPB.n696 VPB.t83 14.282
R501 VPB.n696 VPB.t40 14.282
R502 VPB.n629 VPB.t48 14.282
R503 VPB.n629 VPB.t5 14.282
R504 VPB.n567 VPB.t60 14.282
R505 VPB.n567 VPB.t0 14.282
R506 VPB.n550 VPB.t88 14.282
R507 VPB.n550 VPB.t61 14.282
R508 VPB.n484 VPB.t89 14.282
R509 VPB.n484 VPB.t76 14.282
R510 VPB.n467 VPB.t35 14.282
R511 VPB.n467 VPB.t87 14.282
R512 VPB.n400 VPB.t46 14.282
R513 VPB.n400 VPB.t52 14.282
R514 VPB.n337 VPB.t54 14.282
R515 VPB.n337 VPB.t24 14.282
R516 VPB.n169 VPB.n168 13.653
R517 VPB.n168 VPB.n167 13.653
R518 VPB.n174 VPB.n173 13.653
R519 VPB.n173 VPB.n172 13.653
R520 VPB.n178 VPB.n177 13.653
R521 VPB.n177 VPB.n176 13.653
R522 VPB.n184 VPB.n183 13.653
R523 VPB.n183 VPB.n182 13.653
R524 VPB.n188 VPB.n187 13.653
R525 VPB.n187 VPB.n186 13.653
R526 VPB.n215 VPB.n214 13.653
R527 VPB.n214 VPB.n213 13.653
R528 VPB.n219 VPB.n218 13.653
R529 VPB.n218 VPB.n217 13.653
R530 VPB.n223 VPB.n222 13.653
R531 VPB.n222 VPB.n221 13.653
R532 VPB.n227 VPB.n226 13.653
R533 VPB.n226 VPB.n225 13.653
R534 VPB.n231 VPB.n230 13.653
R535 VPB.n230 VPB.n229 13.653
R536 VPB.n235 VPB.n234 13.653
R537 VPB.n234 VPB.n233 13.653
R538 VPB.n239 VPB.n238 13.653
R539 VPB.n238 VPB.n237 13.653
R540 VPB.n243 VPB.n242 13.653
R541 VPB.n242 VPB.n241 13.653
R542 VPB.n270 VPB.n269 13.653
R543 VPB.n269 VPB.n268 13.653
R544 VPB.n274 VPB.n273 13.653
R545 VPB.n273 VPB.n272 13.653
R546 VPB.n278 VPB.n277 13.653
R547 VPB.n277 VPB.n276 13.653
R548 VPB.n282 VPB.n281 13.653
R549 VPB.n281 VPB.n280 13.653
R550 VPB.n286 VPB.n285 13.653
R551 VPB.n285 VPB.n284 13.653
R552 VPB.n290 VPB.n289 13.653
R553 VPB.n289 VPB.n288 13.653
R554 VPB.n294 VPB.n293 13.653
R555 VPB.n293 VPB.n292 13.653
R556 VPB.n298 VPB.n297 13.653
R557 VPB.n297 VPB.n296 13.653
R558 VPB.n325 VPB.n324 13.653
R559 VPB.n324 VPB.n323 13.653
R560 VPB.n330 VPB.n329 13.653
R561 VPB.n329 VPB.n328 13.653
R562 VPB.n335 VPB.n334 13.653
R563 VPB.n334 VPB.n333 13.653
R564 VPB.n342 VPB.n341 13.653
R565 VPB.n341 VPB.n340 13.653
R566 VPB.n347 VPB.n346 13.653
R567 VPB.n346 VPB.n345 13.653
R568 VPB.n352 VPB.n351 13.653
R569 VPB.n351 VPB.n350 13.653
R570 VPB.n357 VPB.n356 13.653
R571 VPB.n356 VPB.n355 13.653
R572 VPB.n361 VPB.n360 13.653
R573 VPB.n360 VPB.n359 13.653
R574 VPB.n388 VPB.n387 13.653
R575 VPB.n387 VPB.n386 13.653
R576 VPB.n393 VPB.n392 13.653
R577 VPB.n392 VPB.n391 13.653
R578 VPB.n398 VPB.n397 13.653
R579 VPB.n397 VPB.n396 13.653
R580 VPB.n405 VPB.n404 13.653
R581 VPB.n404 VPB.n403 13.653
R582 VPB.n410 VPB.n409 13.653
R583 VPB.n409 VPB.n408 13.653
R584 VPB.n415 VPB.n414 13.653
R585 VPB.n414 VPB.n413 13.653
R586 VPB.n420 VPB.n419 13.653
R587 VPB.n419 VPB.n418 13.653
R588 VPB.n424 VPB.n423 13.653
R589 VPB.n423 VPB.n422 13.653
R590 VPB.n451 VPB.n450 13.653
R591 VPB.n450 VPB.n449 13.653
R592 VPB.n455 VPB.n454 13.653
R593 VPB.n454 VPB.n453 13.653
R594 VPB.n460 VPB.n459 13.653
R595 VPB.n459 VPB.n458 13.653
R596 VPB.n465 VPB.n464 13.653
R597 VPB.n464 VPB.n463 13.653
R598 VPB.n472 VPB.n471 13.653
R599 VPB.n471 VPB.n470 13.653
R600 VPB.n477 VPB.n476 13.653
R601 VPB.n476 VPB.n475 13.653
R602 VPB.n482 VPB.n481 13.653
R603 VPB.n481 VPB.n480 13.653
R604 VPB.n489 VPB.n488 13.653
R605 VPB.n488 VPB.n487 13.653
R606 VPB.n494 VPB.n493 13.653
R607 VPB.n493 VPB.n492 13.653
R608 VPB.n499 VPB.n498 13.653