* SPICE3 file created from TMRDFFSNRNQNX1.ext - technology: sky130A

.subckt TMRDFFSNRNQNX1 QN D CLK SN RN VDD GND
M1000 VDD.t48 a_10219_989.t7 a_17533_1051.t4 pshort w=2u l=0.15u
+  ad=0p pd=0u as=0p ps=0u
M1001 a_15669_1050.t5 a_15991_989.t7 VDD.t43 pshort w=2u l=0.15u
+  ad=0p pd=0u as=0p ps=0u
M1002 GND a_6049_1050.t8 a_7787_103.t0 nshort w=-1.605u l=1.765u
+  ad=3.7611p pd=32.97u as=0p ps=0u
M1003 VDD.t102 a_11821_1050.t7 a_12143_989.t3 pshort w=2u l=0.15u
+  ad=0p pd=0u as=0p ps=0u
M1004 a_13105_989.t2 CLK.t1 VDD.t34 pshort w=2u l=0.15u
+  ad=0p pd=0u as=0p ps=0u
M1005 GND a_6371_989.t8 a_9711_103.t0 nshort w=-1.605u l=1.765u
+  ad=0p pd=0u as=0p ps=0u
M1006 QN a_10219_989.t10 a_18760_101.t0 nshort w=-1.83u l=2.06u
+  ad=0.5373p pd=4.72u as=0p ps=0u
M1007 VDD.t111 SN.t0 a_15991_989.t6 pshort w=2u l=0.15u
+  ad=0p pd=0u as=0p ps=0u
M1008 GND D.t4 a_5863_103.t0 nshort w=-1.605u l=1.765u
+  ad=0p pd=0u as=0p ps=0u
M1009 VDD.t68 SN.t1 a_10219_989.t2 pshort w=2u l=0.15u
+  ad=0p pd=0u as=0p ps=0u
M1010 VDD.t36 a_12143_989.t7 a_15669_1050.t2 pshort w=2u l=0.15u
+  ad=0p pd=0u as=0p ps=0u
M1011 a_13745_1050.t6 a_11821_1050.t8 VDD.t103 pshort w=2u l=0.15u
+  ad=0p pd=0u as=0p ps=0u
M1012 a_6049_1050.t2 a_6371_989.t7 VDD.t20 pshort w=2u l=0.15u
+  ad=0p pd=0u as=0p ps=0u
M1013 VDD.t1 a_2201_1050.t7 a_1561_989.t4 pshort w=2u l=0.15u
+  ad=0p pd=0u as=0p ps=0u
M1014 VDD.t71 a_7333_989.t7 a_7973_1050.t2 pshort w=2u l=0.15u
+  ad=0p pd=0u as=0p ps=0u
M1015 VDD.t50 a_10219_989.t8 a_9897_1050.t3 pshort w=2u l=0.15u
+  ad=0p pd=0u as=0p ps=0u
M1016 a_4447_989.t3 SN.t2 VDD.t8 pshort w=2u l=0.15u
+  ad=0p pd=0u as=0p ps=0u
M1017 QN.t6 a_4447_989.t8 a_18197_1051.t6 pshort w=2u l=0.15u
+  ad=0p pd=0u as=0p ps=0u
M1018 a_17533_1051.t7 a_4447_989.t9 a_18197_1051.t5 pshort w=2u l=0.15u
+  ad=0p pd=0u as=0p ps=0u
M1019 VDD.t23 CLK.t2 a_6371_989.t2 pshort w=2u l=0.15u
+  ad=0p pd=0u as=0p ps=0u
M1020 a_7333_989.t6 RN.t0 VDD.t108 pshort w=2u l=0.15u
+  ad=0p pd=0u as=0p ps=0u
M1021 GND a_11821_1050.t9 a_12597_103.t0 nshort w=-1.605u l=1.765u
+  ad=0p pd=0u as=0p ps=0u
M1022 VDD.t16 D.t1 a_6049_1050.t1 pshort w=2u l=0.15u
+  ad=0p pd=0u as=0p ps=0u
M1023 GND a_13745_1050.t7 a_14521_103.t0 nshort w=-1.605u l=1.765u
+  ad=0p pd=0u as=0p ps=0u
M1024 a_7973_1050.t4 SN.t4 VDD.t90 pshort w=2u l=0.15u
+  ad=0p pd=0u as=0p ps=0u
M1025 a_18197_1051.t0 a_10219_989.t9 QN.t3 pshort w=2u l=0.15u
+  ad=0p pd=0u as=0p ps=0u
M1026 VDD.t39 a_15991_989.t9 a_17533_1051.t2 pshort w=2u l=0.15u
+  ad=0p pd=0u as=0p ps=0u
M1027 GND a_9897_1050.t7 a_10673_103.t0 nshort w=-1.605u l=1.765u
+  ad=0p pd=0u as=0p ps=0u
M1028 GND a_7973_1050.t7 a_8749_103.t0 nshort w=-1.605u l=1.765u
+  ad=0p pd=0u as=0p ps=0u
M1029 VDD.t55 D.t2 a_277_1050.t3 pshort w=2u l=0.15u
+  ad=0p pd=0u as=0p ps=0u
M1030 VDD.t52 D.t3 a_11821_1050.t2 pshort w=2u l=0.15u
+  ad=0p pd=0u as=0p ps=0u
M1031 GND D.t5 a_91_103.t0 nshort w=-1.605u l=1.765u
+  ad=0p pd=0u as=0p ps=0u
M1032 VDD.t80 RN.t2 a_15669_1050.t6 pshort w=2u l=0.15u
+  ad=0p pd=0u as=0p ps=0u
M1033 a_599_989.t4 CLK.t3 VDD.t27 pshort w=2u l=0.15u
+  ad=0p pd=0u as=0p ps=0u
M1034 VDD.t107 RN.t3 a_9897_1050.t6 pshort w=2u l=0.15u
+  ad=0p pd=0u as=0p ps=0u
M1035 a_11821_1050.t1 a_12143_989.t8 VDD.t37 pshort w=2u l=0.15u
+  ad=0p pd=0u as=0p ps=0u
M1036 VDD.t30 CLK.t4 a_1561_989.t2 pshort w=2u l=0.15u
+  ad=0p pd=0u as=0p ps=0u
M1037 VDD.t97 a_13105_989.t9 a_13745_1050.t4 pshort w=2u l=0.15u
+  ad=0p pd=0u as=0p ps=0u
M1038 GND a_15991_989.t11 a_17428_101.t0 nshort w=-1.605u l=1.765u
+  ad=0p pd=0u as=0p ps=0u
M1039 VDD.t15 a_277_1050.t7 a_2201_1050.t1 pshort w=2u l=0.15u
+  ad=0p pd=0u as=0p ps=0u
M1040 a_7333_989.t1 CLK.t6 VDD.t29 pshort w=2u l=0.15u
+  ad=0p pd=0u as=0p ps=0u
M1041 a_10219_989.t1 SN.t5 VDD.t2 pshort w=2u l=0.15u
+  ad=0p pd=0u as=0p ps=0u
M1042 VDD.t4 a_7333_989.t8 a_6371_989.t0 pshort w=2u l=0.15u
+  ad=0p pd=0u as=0p ps=0u
M1043 VDD.t25 CLK.t7 a_12143_989.t1 pshort w=2u l=0.15u
+  ad=0p pd=0u as=0p ps=0u
M1044 a_13105_989.t1 RN.t4 VDD.t12 pshort w=2u l=0.15u
+  ad=0p pd=0u as=0p ps=0u
M1045 GND a_11821_1050.t10 a_13559_103.t0 nshort w=-1.605u l=1.765u
+  ad=0p pd=0u as=0p ps=0u
M1046 GND a_12143_989.t9 a_15483_103.t0 nshort w=-1.605u l=1.765u
+  ad=0p pd=0u as=0p ps=0u
M1047 QN a_4447_989.t11 a_18094_101.t0 nshort w=-1.235u l=1.535u
+  ad=0p pd=0u as=0p ps=0u
M1048 VDD.t75 RN.t5 a_277_1050.t1 pshort w=2u l=0.15u
+  ad=0p pd=0u as=0p ps=0u
M1049 a_6371_989.t4 a_6049_1050.t9 VDD.t58 pshort w=2u l=0.15u
+  ad=0p pd=0u as=0p ps=0u
M1050 a_17533_1051.t3 a_15991_989.t10 VDD.t40 pshort w=2u l=0.15u
+  ad=0p pd=0u as=0p ps=0u
M1051 VDD.t93 a_7973_1050.t8 a_7333_989.t3 pshort w=2u l=0.15u
+  ad=0p pd=0u as=0p ps=0u
M1052 VDD.t91 a_9897_1050.t8 a_10219_989.t5 pshort w=2u l=0.15u
+  ad=0p pd=0u as=0p ps=0u
M1053 a_12143_989.t0 CLK.t8 VDD.t24 pshort w=2u l=0.15u
+  ad=0p pd=0u as=0p ps=0u
M1054 a_599_989.t1 a_1561_989.t7 VDD.t67 pshort w=2u l=0.15u
+  ad=0p pd=0u as=0p ps=0u
M1055 a_15991_989.t2 a_15669_1050.t7 VDD.t45 pshort w=2u l=0.15u
+  ad=0p pd=0u as=0p ps=0u
M1056 VDD.t106 RN.t7 a_1561_989.t6 pshort w=2u l=0.15u
+  ad=0p pd=0u as=0p ps=0u
M1057 a_9897_1050.t1 a_6371_989.t9 VDD.t73 pshort w=2u l=0.15u
+  ad=0p pd=0u as=0p ps=0u
M1058 GND a_15669_1050.t8 a_16445_103.t0 nshort w=-1.605u l=1.765u
+  ad=0p pd=0u as=0p ps=0u
M1059 a_4125_1050.t6 a_599_989.t8 VDD.t109 pshort w=2u l=0.15u
+  ad=0p pd=0u as=0p ps=0u
M1060 VDD.t83 SN.t6 a_2201_1050.t3 pshort w=2u l=0.15u
+  ad=0p pd=0u as=0p ps=0u
M1061 a_4125_1050.t5 a_4447_989.t10 VDD.t87 pshort w=2u l=0.15u
+  ad=0p pd=0u as=0p ps=0u
M1062 VDD.t53 a_6371_989.t10 a_6049_1050.t3 pshort w=2u l=0.15u
+  ad=0p pd=0u as=0p ps=0u
M1063 a_18197_1051.t3 a_15991_989.t12 a_17533_1051.t6 pshort w=2u l=0.15u
+  ad=0p pd=0u as=0p ps=0u
M1064 a_1561_989.t1 CLK.t9 VDD.t32 pshort w=2u l=0.15u
+  ad=0p pd=0u as=0p ps=0u
M1065 VDD.t46 a_599_989.t9 a_277_1050.t5 pshort w=2u l=0.15u
+  ad=0p pd=0u as=0p ps=0u
M1066 a_13745_1050.t1 SN.t7 VDD.t70 pshort w=2u l=0.15u
+  ad=0p pd=0u as=0p ps=0u
M1067 a_17533_1051.t5 a_10219_989.t11 VDD.t47 pshort w=2u l=0.15u
+  ad=0p pd=0u as=0p ps=0u
M1068 a_12143_989.t2 a_11821_1050.t11 VDD.t13 pshort w=2u l=0.15u
+  ad=0p pd=0u as=0p ps=0u
M1069 VDD.t22 a_13745_1050.t8 a_13105_989.t5 pshort w=2u l=0.15u
+  ad=0p pd=0u as=0p ps=0u
M1070 a_15991_989.t0 SN.t10 VDD.t3 pshort w=2u l=0.15u
+  ad=0p pd=0u as=0p ps=0u
M1071 a_15669_1050.t1 a_12143_989.t10 VDD.t35 pshort w=2u l=0.15u
+  ad=0p pd=0u as=0p ps=0u
M1072 a_4125_1050.t2 RN.t9 VDD.t74 pshort w=2u l=0.15u
+  ad=0p pd=0u as=0p ps=0u
M1073 GND a_277_1050.t8 a_2015_103.t0 nshort w=-1.605u l=1.765u
+  ad=0p pd=0u as=0p ps=0u
M1074 VDD.t92 a_1561_989.t8 a_2201_1050.t5 pshort w=2u l=0.15u
+  ad=0p pd=0u as=0p ps=0u
M1075 VDD.t79 RN.t10 a_6049_1050.t6 pshort w=2u l=0.15u
+  ad=0p pd=0u as=0p ps=0u
M1076 a_7333_989.t4 a_7973_1050.t9 VDD.t95 pshort w=2u l=0.15u
+  ad=0p pd=0u as=0p ps=0u
M1077 a_7973_1050.t1 a_7333_989.t9 VDD.t89 pshort w=2u l=0.15u
+  ad=0p pd=0u as=0p ps=0u
M1078 a_9897_1050.t2 a_10219_989.t12 VDD.t49 pshort w=2u l=0.15u
+  ad=0p pd=0u as=0p ps=0u
M1079 VDD.t101 a_13105_989.t10 a_15991_989.t5 pshort w=2u l=0.15u
+  ad=0p pd=0u as=0p ps=0u
M1080 a_1561_989.t3 a_2201_1050.t8 VDD.t9 pshort w=2u l=0.15u
+  ad=0p pd=0u as=0p ps=0u
M1081 a_18197_1051.t4 a_4447_989.t13 a_17533_1051.t0 pshort w=2u l=0.15u
+  ad=0p pd=0u as=0p ps=0u
M1082 VDD.t42 a_4125_1050.t8 a_4447_989.t1 pshort w=2u l=0.15u
+  ad=0p pd=0u as=0p ps=0u
M1083 a_6371_989.t1 CLK.t12 VDD.t31 pshort w=2u l=0.15u
+  ad=0p pd=0u as=0p ps=0u
M1084 VDD.t28 CLK.t13 a_7333_989.t0 pshort w=2u l=0.15u
+  ad=0p pd=0u as=0p ps=0u
M1085 a_6049_1050.t5 D.t6 VDD.t77 pshort w=2u l=0.15u
+  ad=0p pd=0u as=0p ps=0u
M1086 QN.t2 a_10219_989.t13 a_18197_1051.t1 pshort w=2u l=0.15u
+  ad=0p pd=0u as=0p ps=0u
M1087 a_277_1050.t2 D.t7 VDD.t78 pshort w=2u l=0.15u
+  ad=0p pd=0u as=0p ps=0u
M1088 VDD.t33 CLK.t14 a_13105_989.t3 pshort w=2u l=0.15u
+  ad=0p pd=0u as=0p ps=0u
M1089 a_15991_989.t4 a_13105_989.t11 VDD.t98 pshort w=2u l=0.15u
+  ad=0p pd=0u as=0p ps=0u
M1090 a_10219_989.t0 a_7333_989.t10 VDD.t0 pshort w=2u l=0.15u
+  ad=0p pd=0u as=0p ps=0u
M1091 VDD.t14 a_11821_1050.t12 a_13745_1050.t0 pshort w=2u l=0.15u
+  ad=0p pd=0u as=0p ps=0u
M1092 QN a_10219_989.t14 a_17428_101.t0 nshort w=-1.605u l=1.765u
+  ad=0p pd=0u as=0p ps=0u
M1093 VDD.t100 a_13105_989.t12 a_12143_989.t6 pshort w=2u l=0.15u
+  ad=0p pd=0u as=0p ps=0u
M1094 a_15669_1050.t0 RN.t13 VDD.t11 pshort w=2u l=0.15u
+  ad=0p pd=0u as=0p ps=0u
M1095 GND a_2201_1050.t9 a_2977_103.t0 nshort w=-1.605u l=1.765u
+  ad=0p pd=0u as=0p ps=0u
M1096 VDD.t63 a_277_1050.t9 a_599_989.t6 pshort w=2u l=0.15u
+  ad=0p pd=0u as=0p ps=0u
M1097 a_9897_1050.t5 RN.t14 VDD.t51 pshort w=2u l=0.15u
+  ad=0p pd=0u as=0p ps=0u
M1098 VDD.t6 RN.t15 a_11821_1050.t0 pshort w=2u l=0.15u
+  ad=0p pd=0u as=0p ps=0u
M1099 VDD.t110 a_1561_989.t11 a_599_989.t0 pshort w=2u l=0.15u
+  ad=0p pd=0u as=0p ps=0u
M1100 a_13745_1050.t5 a_13105_989.t13 VDD.t96 pshort w=2u l=0.15u
+  ad=0p pd=0u as=0p ps=0u
M1101 GND a_277_1050.t10 a_1053_103.t0 nshort w=-1.605u l=1.765u
+  ad=0p pd=0u as=0p ps=0u
M1102 VDD.t94 SN.t12 a_4447_989.t2 pshort w=2u l=0.15u
+  ad=0p pd=0u as=0p ps=0u
M1103 a_18197_1051.t7 a_4447_989.t14 QN.t5 pshort w=2u l=0.15u
+  ad=0p pd=0u as=0p ps=0u
M1104 VDD.t17 a_15991_989.t13 a_15669_1050.t4 pshort w=2u l=0.15u
+  ad=0p pd=0u as=0p ps=0u
M1105 a_6371_989.t5 a_7333_989.t12 VDD.t66 pshort w=2u l=0.15u
+  ad=0p pd=0u as=0p ps=0u
M1106 VDD.t65 RN.t17 a_7333_989.t2 pshort w=2u l=0.15u
+  ad=0p pd=0u as=0p ps=0u
M1107 VDD.t88 SN.t13 a_7973_1050.t3 pshort w=2u l=0.15u
+  ad=0p pd=0u as=0p ps=0u
M1108 a_277_1050.t0 RN.t18 VDD.t44 pshort w=2u l=0.15u
+  ad=0p pd=0u as=0p ps=0u
M1109 a_11821_1050.t3 RN.t19 VDD.t64 pshort w=2u l=0.15u
+  ad=0p pd=0u as=0p ps=0u
M1110 VDD.t85 SN.t14 a_13745_1050.t2 pshort w=2u l=0.15u
+  ad=0p pd=0u as=0p ps=0u
M1111 a_10219_989.t4 a_9897_1050.t9 VDD.t84 pshort w=2u l=0.15u
+  ad=0p pd=0u as=0p ps=0u
M1112 GND a_599_989.t11 a_3939_103.t0 nshort w=-1.605u l=1.765u
+  ad=0p pd=0u as=0p ps=0u
M1113 VDD.t26 CLK.t15 a_599_989.t3 pshort w=2u l=0.15u
+  ad=0p pd=0u as=0p ps=0u
M1114 a_1561_989.t5 RN.t20 VDD.t105 pshort w=2u l=0.15u
+  ad=0p pd=0u as=0p ps=0u
M1115 VDD.t82 a_12143_989.t12 a_11821_1050.t6 pshort w=2u l=0.15u
+  ad=0p pd=0u as=0p ps=0u
M1116 VDD.t86 a_1561_989.t13 a_4447_989.t6 pshort w=2u l=0.15u
+  ad=0p pd=0u as=0p ps=0u
M1117 a_2201_1050.t2 SN.t15 VDD.t19 pshort w=2u l=0.15u
+  ad=0p pd=0u as=0p ps=0u
M1118 a_12143_989.t5 a_13105_989.t14 VDD.t99 pshort w=2u l=0.15u
+  ad=0p pd=0u as=0p ps=0u
M1119 VDD.t5 RN.t21 a_4125_1050.t0 pshort w=2u l=0.15u
+  ad=0p pd=0u as=0p ps=0u
M1120 VDD.t10 RN.t22 a_13105_989.t0 pshort w=2u l=0.15u
+  ad=0p pd=0u as=0p ps=0u
M1121 a_599_989.t5 a_277_1050.t11 VDD.t57 pshort w=2u l=0.15u
+  ad=0p pd=0u as=0p ps=0u
M1122 VDD.t60 a_6049_1050.t10 a_7973_1050.t6 pshort w=2u l=0.15u
+  ad=0p pd=0u as=0p ps=0u
M1123 a_277_1050.t4 a_599_989.t10 VDD.t18 pshort w=2u l=0.15u
+  ad=0p pd=0u as=0p ps=0u
M1124 a_11821_1050.t4 D.t8 VDD.t76 pshort w=2u l=0.15u
+  ad=0p pd=0u as=0p ps=0u
M1125 GND a_6049_1050.t7 a_6825_103.t0 nshort w=-1.605u l=1.765u
+  ad=0p pd=0u as=0p ps=0u
M1126 a_13105_989.t6 a_13745_1050.t9 VDD.t21 pshort w=2u l=0.15u
+  ad=0p pd=0u as=0p ps=0u
M1127 GND a_4125_1050.t7 a_4901_103.t0 nshort w=-1.605u l=1.765u
+  ad=0p pd=0u as=0p ps=0u
M1128 VDD.t41 a_15669_1050.t9 a_15991_989.t1 pshort w=2u l=0.15u
+  ad=0p pd=0u as=0p ps=0u
M1129 a_7973_1050.t5 a_6049_1050.t11 VDD.t61 pshort w=2u l=0.15u
+  ad=0p pd=0u as=0p ps=0u
M1130 VDD.t69 a_6371_989.t12 a_9897_1050.t0 pshort w=2u l=0.15u
+  ad=0p pd=0u as=0p ps=0u
M1131 a_2201_1050.t6 a_277_1050.t12 VDD.t104 pshort w=2u l=0.15u
+  ad=0p pd=0u as=0p ps=0u
M1132 VDD.t72 a_7333_989.t15 a_10219_989.t3 pshort w=2u l=0.15u
+  ad=0p pd=0u as=0p ps=0u
M1133 a_2201_1050.t4 a_1561_989.t14 VDD.t54 pshort w=2u l=0.15u
+  ad=0p pd=0u as=0p ps=0u
M1134 VDD.t81 a_599_989.t12 a_4125_1050.t3 pshort w=2u l=0.15u
+  ad=0p pd=0u as=0p ps=0u
M1135 a_6049_1050.t4 RN.t26 VDD.t62 pshort w=2u l=0.15u
+  ad=0p pd=0u as=0p ps=0u
M1136 GND a_4447_989.t7 a_18760_101.t0 nshort w=-1.605u l=1.765u
+  ad=0p pd=0u as=0p ps=0u
M1137 GND a_15991_989.t8 a_18094_101.t0 nshort w=-1.605u l=1.765u
+  ad=0p pd=0u as=0p ps=0u
M1138 VDD.t7 a_4447_989.t15 a_4125_1050.t1 pshort w=2u l=0.15u
+  ad=0p pd=0u as=0p ps=0u
M1139 a_17533_1051.t1 a_15991_989.t14 a_18197_1051.t2 pshort w=2u l=0.15u
+  ad=0p pd=0u as=0p ps=0u
M1140 a_4447_989.t0 a_4125_1050.t9 VDD.t38 pshort w=2u l=0.15u
+  ad=0p pd=0u as=0p ps=0u
M1141 VDD.t59 a_6049_1050.t12 a_6371_989.t3 pshort w=2u l=0.15u
+  ad=0p pd=0u as=0p ps=0u
M1142 a_4447_989.t4 a_1561_989.t15 VDD.t56 pshort w=2u l=0.15u
+  ad=0p pd=0u as=0p ps=0u
M1143 GND D.t0 a_11635_103.t0 nshort w=-1.605u l=1.765u
+  ad=0p pd=0u as=0p ps=0u
C0 VDD RN 0.48fF
C1 VDD CLK 1.65fF
C2 D RN 2.36fF
C3 VDD SN 0.30fF
C4 D CLK 12.06fF
C5 VDD QN 0.29fF
C6 RN CLK 1.11fF
C7 D SN 0.31fF
C8 RN SN 16.07fF
C9 CLK SN 0.63fF
C10 VDD D 5.87fF
R0 CLK.n18 CLK.t15 459.505
R1 CLK.n15 CLK.t4 459.505
R2 CLK.n12 CLK.t2 459.505
R3 CLK.n7 CLK.t13 459.505
R4 CLK.n4 CLK.t7 459.505
R5 CLK.n0 CLK.t14 459.505
R6 CLK.n18 CLK.t3 384.527
R7 CLK.n15 CLK.t9 384.527
R8 CLK.n12 CLK.t12 384.527
R9 CLK.n7 CLK.t6 384.527
R10 CLK.n4 CLK.t8 384.527
R11 CLK.n0 CLK.t1 384.527
R12 CLK.n16 CLK.t0 322.151
R13 CLK.n8 CLK.t5 322.151
R14 CLK.n1 CLK.t10 322.151
R15 CLK.n20 CLK.t17 321.792
R16 CLK.n10 CLK.t16 320.152
R17 CLK.n2 CLK.t11 320.152
R18 CLK.n19 CLK 152
R19 CLK.n6 CLK.n5 75.989
R20 CLK.n14 CLK.n13 75.989
R21 CLK.n3 CLK.n2 75.568
R22 CLK.n11 CLK.n10 75.568
R23 CLK.n3 CLK.n1 56.374
R24 CLK.n21 CLK.n20 49.379
R25 CLK.n9 CLK.n8 49.342
R26 CLK.n17 CLK.n16 49.342
R27 CLK.n1 CLK.n0 27.599
R28 CLK.n8 CLK.n7 27.599
R29 CLK.n16 CLK.n15 27.599
R30 CLK.n19 CLK.n18 21.475
R31 CLK.n13 CLK.n12 21.475
R32 CLK.n5 CLK.n4 21.475
R33 CLK.n9 CLK.n6 14.076
R34 CLK.n17 CLK.n14 14.076
R35 CLK.n11 CLK.n9 7.032
R36 CLK.n21 CLK.n17 7.032
R37 CLK.n20 CLK.n19 3.3
R38 CLK.n21 CLK 0.046
R39 CLK.n6 CLK.n3 0.023
R40 CLK.n14 CLK.n11 0.023
R41 a_2977_103.t0 a_2977_103.n0 117.777
R42 a_2977_103.n2 a_2977_103.n1 55.228
R43 a_2977_103.n4 a_2977_103.n3 9.111
R44 a_2977_103.n8 a_2977_103.n6 7.859
R45 a_2977_103.t0 a_2977_103.n2 4.04
R46 a_2977_103.t0 a_2977_103.n8 3.034
R47 a_2977_103.n6 a_2977_103.n4 1.964
R48 a_2977_103.n6 a_2977_103.n5 1.964
R49 a_2977_103.n8 a_2977_103.n7 0.443
R50 a_3258_210.n12 a_3258_210.n5 96.467
R51 a_3258_210.t0 a_3258_210.n1 46.91
R52 a_3258_210.n9 a_3258_210.n7 34.805
R53 a_3258_210.n9 a_3258_210.n8 32.622
R54 a_3258_210.t0 a_3258_210.n12 32.417
R55 a_3258_210.n5 a_3258_210.n4 22.349
R56 a_3258_210.n11 a_3258_210.n9 19.017
R57 a_3258_210.n1 a_3258_210.n0 17.006
R58 a_3258_210.n5 a_3258_210.n3 8.443
R59 a_3258_210.t0 a_3258_210.n2 8.137
R60 a_3258_210.n7 a_3258_210.n6 7.5
R61 a_3258_210.n11 a_3258_210.n10 7.5
R62 a_3258_210.n12 a_3258_210.n11 1.435
R63 a_13105_989.n7 a_13105_989.t13 454.685
R64 a_13105_989.n9 a_13105_989.t14 454.685
R65 a_13105_989.n5 a_13105_989.t11 454.685
R66 a_13105_989.n7 a_13105_989.t9 428.979
R67 a_13105_989.n9 a_13105_989.t12 428.979
R68 a_13105_989.n5 a_13105_989.t10 428.979
R69 a_13105_989.n8 a_13105_989.t7 264.512
R70 a_13105_989.n6 a_13105_989.t8 264.512
R71 a_13105_989.n10 a_13105_989.t15 264.173
R72 a_13105_989.n15 a_13105_989.n13 246.179
R73 a_13105_989.n13 a_13105_989.n4 144.246
R74 a_13105_989.n12 a_13105_989.n6 82.484
R75 a_13105_989.n11 a_13105_989.n10 79.495
R76 a_13105_989.n3 a_13105_989.n2 79.232
R77 a_13105_989.n11 a_13105_989.n8 76
R78 a_13105_989.n13 a_13105_989.n12 76
R79 a_13105_989.n8 a_13105_989.n7 71.894
R80 a_13105_989.n6 a_13105_989.n5 71.894
R81 a_13105_989.n10 a_13105_989.n9 71.555
R82 a_13105_989.n4 a_13105_989.n3 63.152
R83 a_13105_989.n4 a_13105_989.n0 16.08
R84 a_13105_989.n3 a_13105_989.n1 16.08
R85 a_13105_989.n15 a_13105_989.n14 15.218
R86 a_13105_989.n0 a_13105_989.t0 14.282
R87 a_13105_989.n0 a_13105_989.t1 14.282
R88 a_13105_989.n1 a_13105_989.t3 14.282
R89 a_13105_989.n1 a_13105_989.t2 14.282
R90 a_13105_989.n2 a_13105_989.t5 14.282
R91 a_13105_989.n2 a_13105_989.t6 14.282
R92 a_13105_989.n16 a_13105_989.n15 12.014
R93 a_13105_989.n12 a_13105_989.n11 4.035
R94 a_13840_210.n12 a_13840_210.n5 96.467
R95 a_13840_210.t0 a_13840_210.n1 46.91
R96 a_13840_210.n9 a_13840_210.n7 34.805
R97 a_13840_210.n9 a_13840_210.n8 32.622
R98 a_13840_210.t0 a_13840_210.n12 32.417
R99 a_13840_210.n5 a_13840_210.n4 22.349
R100 a_13840_210.n11 a_13840_210.n9 19.017
R101 a_13840_210.n1 a_13840_210.n0 17.006
R102 a_13840_210.n5 a_13840_210.n3 8.443
R103 a_13840_210.t0 a_13840_210.n2 8.137
R104 a_13840_210.n7 a_13840_210.n6 7.5
R105 a_13840_210.n11 a_13840_210.n10 7.5
R106 a_13840_210.n12 a_13840_210.n11 1.435
R107 a_13745_1050.n5 a_13745_1050.t8 512.525
R108 a_13745_1050.n5 a_13745_1050.t9 371.139
R109 a_13745_1050.n6 a_13745_1050.t7 234.562
R110 a_13745_1050.n7 a_13745_1050.n4 223.905
R111 a_13745_1050.n6 a_13745_1050.n5 215.819
R112 a_13745_1050.n9 a_13745_1050.n7 166.52
R113 a_13745_1050.n7 a_13745_1050.n6 153.315
R114 a_13745_1050.n3 a_13745_1050.n2 79.232
R115 a_13745_1050.n4 a_13745_1050.n3 63.152
R116 a_13745_1050.n4 a_13745_1050.n0 16.08
R117 a_13745_1050.n3 a_13745_1050.n1 16.08
R118 a_13745_1050.n9 a_13745_1050.n8 15.218
R119 a_13745_1050.n0 a_13745_1050.t4 14.282
R120 a_13745_1050.n0 a_13745_1050.t5 14.282
R121 a_13745_1050.n1 a_13745_1050.t2 14.282
R122 a_13745_1050.n1 a_13745_1050.t1 14.282
R123 a_13745_1050.n2 a_13745_1050.t0 14.282
R124 a_13745_1050.n2 a_13745_1050.t6 14.282
R125 a_13745_1050.n10 a_13745_1050.n9 12.014
R126 a_6049_1050.n7 a_6049_1050.t12 512.525
R127 a_6049_1050.n5 a_6049_1050.t10 512.525
R128 a_6049_1050.n7 a_6049_1050.t9 371.139
R129 a_6049_1050.n5 a_6049_1050.t11 371.139
R130 a_6049_1050.n8 a_6049_1050.t7 234.921
R131 a_6049_1050.n6 a_6049_1050.t8 234.921
R132 a_6049_1050.n10 a_6049_1050.n4 223.546
R133 a_6049_1050.n8 a_6049_1050.n7 215.46
R134 a_6049_1050.n6 a_6049_1050.n5 215.46
R135 a_6049_1050.n12 a_6049_1050.n10 166.879
R136 a_6049_1050.n9 a_6049_1050.n6 79.491
R137 a_6049_1050.n3 a_6049_1050.n2 79.232
R138 a_6049_1050.n10 a_6049_1050.n9 77.315
R139 a_6049_1050.n9 a_6049_1050.n8 76
R140 a_6049_1050.n4 a_6049_1050.n3 63.152
R141 a_6049_1050.n4 a_6049_1050.n0 16.08
R142 a_6049_1050.n3 a_6049_1050.n1 16.08
R143 a_6049_1050.n12 a_6049_1050.n11 15.218
R144 a_6049_1050.n0 a_6049_1050.t3 14.282
R145 a_6049_1050.n0 a_6049_1050.t2 14.282
R146 a_6049_1050.n1 a_6049_1050.t6 14.282
R147 a_6049_1050.n1 a_6049_1050.t4 14.282
R148 a_6049_1050.n2 a_6049_1050.t1 14.282
R149 a_6049_1050.n2 a_6049_1050.t5 14.282
R150 a_6049_1050.n13 a_6049_1050.n12 12.014
R151 a_6825_103.t0 a_6825_103.n0 117.777
R152 a_6825_103.n2 a_6825_103.n1 55.228
R153 a_6825_103.n4 a_6825_103.n3 9.111
R154 a_6825_103.n8 a_6825_103.n6 7.859
R155 a_6825_103.t0 a_6825_103.n2 4.04
R156 a_6825_103.t0 a_6825_103.n8 3.034
R157 a_6825_103.n6 a_6825_103.n4 1.964
R158 a_6825_103.n6 a_6825_103.n5 1.964
R159 a_6825_103.n8 a_6825_103.n7 0.443
R160 GND.n26 GND.n24 219.745
R161 GND.n56 GND.n54 219.745
R162 GND.n468 GND.n467 219.745
R163 GND.n510 GND.n508 219.745
R164 GND.n552 GND.n550 219.745
R165 GND.n594 GND.n592 219.745
R166 GND.n636 GND.n634 219.745
R167 GND.n678 GND.n676 219.745
R168 GND.n723 GND.n721 219.745
R169 GND.n765 GND.n763 219.745
R170 GND.n810 GND.n808 219.745
R171 GND.n423 GND.n421 219.745
R172 GND.n383 GND.n381 219.745
R173 GND.n341 GND.n339 219.745
R174 GND.n299 GND.n297 219.745
R175 GND.n257 GND.n255 219.745
R176 GND.n215 GND.n213 219.745
R177 GND.n170 GND.n168 219.745
R178 GND.n128 GND.n126 219.745
R179 GND.n86 GND.n85 219.745
R180 GND.n117 GND.n116 85.559
R181 GND.n159 GND.n158 85.559
R182 GND.n246 GND.n245 85.559
R183 GND.n288 GND.n287 85.559
R184 GND.n330 GND.n329 85.559
R185 GND.n372 GND.n371 85.559
R186 GND.n414 GND.n413 85.559
R187 GND.n819 GND.n818 85.559
R188 GND.n732 GND.n731 85.559
R189 GND.n645 GND.n644 85.559
R190 GND.n603 GND.n602 85.559
R191 GND.n561 GND.n560 85.559
R192 GND.n519 GND.n518 85.559
R193 GND.n477 GND.n476 85.559
R194 GND.n435 GND.n434 85.559
R195 GND.n26 GND.n25 85.529
R196 GND.n56 GND.n55 85.529
R197 GND.n468 GND.n466 85.529
R198 GND.n510 GND.n509 85.529
R199 GND.n552 GND.n551 85.529
R200 GND.n594 GND.n593 85.529
R201 GND.n636 GND.n635 85.529
R202 GND.n678 GND.n677 85.529
R203 GND.n723 GND.n722 85.529
R204 GND.n765 GND.n764 85.529
R205 GND.n810 GND.n809 85.529
R206 GND.n423 GND.n422 85.529
R207 GND.n383 GND.n382 85.529
R208 GND.n341 GND.n340 85.529
R209 GND.n299 GND.n298 85.529
R210 GND.n257 GND.n256 85.529
R211 GND.n215 GND.n214 85.529
R212 GND.n170 GND.n169 85.529
R213 GND.n128 GND.n127 85.529
R214 GND.n86 GND.n84 85.529
R215 GND.n44 GND.n43 84.842
R216 GND.n74 GND.n73 84.842
R217 GND.n14 GND.n13 84.842
R218 GND.n429 GND.n428 76
R219 GND.n39 GND.n38 76
R220 GND.n42 GND.n41 76
R221 GND.n47 GND.n46 76
R222 GND.n50 GND.n49 76
R223 GND.n53 GND.n52 76
R224 GND.n60 GND.n59 76
R225 GND.n63 GND.n62 76
R226 GND.n66 GND.n65 76
R227 GND.n69 GND.n68 76
R228 GND.n72 GND.n71 76
R229 GND.n77 GND.n76 76
R230 GND.n80 GND.n79 76
R231 GND.n83 GND.n82 76
R232 GND.n90 GND.n89 76
R233 GND.n93 GND.n92 76
R234 GND.n96 GND.n95 76
R235 GND.n99 GND.n98 76
R236 GND.n102 GND.n101 76
R237 GND.n105 GND.n104 76
R238 GND.n108 GND.n107 76
R239 GND.n111 GND.n110 76
R240 GND.n114 GND.n113 76
R241 GND.n119 GND.n118 76
R242 GND.n122 GND.n121 76
R243 GND.n125 GND.n124 76
R244 GND.n132 GND.n131 76
R245 GND.n135 GND.n134 76
R246 GND.n138 GND.n137 76
R247 GND.n141 GND.n140 76
R248 GND.n144 GND.n143 76
R249 GND.n147 GND.n146 76
R250 GND.n150 GND.n149 76
R251 GND.n153 GND.n152 76
R252 GND.n156 GND.n155 76
R253 GND.n161 GND.n160 76
R254 GND.n164 GND.n163 76
R255 GND.n167 GND.n166 76
R256 GND.n174 GND.n173 76
R257 GND.n177 GND.n176 76
R258 GND.n180 GND.n179 76
R259 GND.n183 GND.n182 76
R260 GND.n186 GND.n185 76
R261 GND.n189 GND.n188 76
R262 GND.n192 GND.n191 76
R263 GND.n195 GND.n194 76
R264 GND.n198 GND.n197 76
R265 GND.n206 GND.n205 76
R266 GND.n209 GND.n208 76
R267 GND.n212 GND.n211 76
R268 GND.n219 GND.n218 76
R269 GND.n222 GND.n221 76
R270 GND.n225 GND.n224 76
R271 GND.n228 GND.n227 76
R272 GND.n231 GND.n230 76
R273 GND.n234 GND.n233 76
R274 GND.n237 GND.n236 76
R275 GND.n240 GND.n239 76
R276 GND.n243 GND.n242 76
R277 GND.n248 GND.n247 76
R278 GND.n251 GND.n250 76
R279 GND.n254 GND.n253 76
R280 GND.n261 GND.n260 76
R281 GND.n264 GND.n263 76
R282 GND.n267 GND.n266 76
R283 GND.n270 GND.n269 76
R284 GND.n273 GND.n272 76
R285 GND.n276 GND.n275 76
R286 GND.n279 GND.n278 76
R287 GND.n282 GND.n281 76
R288 GND.n285 GND.n284 76
R289 GND.n290 GND.n289 76
R290 GND.n293 GND.n292 76
R291 GND.n296 GND.n295 76
R292 GND.n303 GND.n302 76
R293 GND.n306 GND.n305 76
R294 GND.n309 GND.n308 76
R295 GND.n312 GND.n311 76
R296 GND.n315 GND.n314 76
R297 GND.n318 GND.n317 76
R298 GND.n321 GND.n320 76
R299 GND.n324 GND.n323 76
R300 GND.n327 GND.n326 76
R301 GND.n332 GND.n331 76
R302 GND.n335 GND.n334 76
R303 GND.n338 GND.n337 76
R304 GND.n345 GND.n344 76
R305 GND.n348 GND.n347 76
R306 GND.n351 GND.n350 76
R307 GND.n354 GND.n353 76
R308 GND.n357 GND.n356 76
R309 GND.n360 GND.n359 76
R310 GND.n363 GND.n362 76
R311 GND.n366 GND.n365 76
R312 GND.n369 GND.n368 76
R313 GND.n374 GND.n373 76
R314 GND.n377 GND.n376 76
R315 GND.n380 GND.n379 76
R316 GND.n387 GND.n386 76
R317 GND.n390 GND.n389 76
R318 GND.n393 GND.n392 76
R319 GND.n396 GND.n395 76
R320 GND.n399 GND.n398 76
R321 GND.n402 GND.n401 76
R322 GND.n405 GND.n404 76
R323 GND.n408 GND.n407 76
R324 GND.n411 GND.n410 76
R325 GND.n416 GND.n415 76
R326 GND.n419 GND.n418 76
R327 GND.n426 GND.n425 76
R328 GND.n848 GND.n847 76
R329 GND.n845 GND.n844 76
R330 GND.n842 GND.n841 76
R331 GND.n839 GND.n838 76
R332 GND.n836 GND.n835 76
R333 GND.n833 GND.n832 76
R334 GND.n830 GND.n829 76
R335 GND.n827 GND.n826 76
R336 GND.n824 GND.n823 76
R337 GND.n821 GND.n820 76
R338 GND.n816 GND.n815 76
R339 GND.n813 GND.n812 76
R340 GND.n806 GND.n805 76
R341 GND.n803 GND.n802 76
R342 GND.n800 GND.n799 76
R343 GND.n797 GND.n796 76
R344 GND.n794 GND.n793 76
R345 GND.n791 GND.n790 76
R346 GND.n788 GND.n787 76
R347 GND.n785 GND.n784 76
R348 GND.n782 GND.n781 76
R349 GND.n779 GND.n778 76
R350 GND.n771 GND.n770 76
R351 GND.n768 GND.n767 76
R352 GND.n761 GND.n760 76
R353 GND.n758 GND.n757 76
R354 GND.n755 GND.n754 76
R355 GND.n752 GND.n751 76
R356 GND.n749 GND.n748 76
R357 GND.n746 GND.n745 76
R358 GND.n743 GND.n742 76
R359 GND.n740 GND.n739 76
R360 GND.n737 GND.n736 76
R361 GND.n734 GND.n733 76
R362 GND.n729 GND.n728 76
R363 GND.n726 GND.n725 76
R364 GND.n719 GND.n718 76
R365 GND.n716 GND.n715 76
R366 GND.n713 GND.n712 76
R367 GND.n710 GND.n709 76
R368 GND.n707 GND.n706 76
R369 GND.n704 GND.n703 76
R370 GND.n701 GND.n700 76
R371 GND.n698 GND.n697 76
R372 GND.n695 GND.n694 76
R373 GND.n692 GND.n691 76
R374 GND.n684 GND.n683 76
R375 GND.n681 GND.n680 76
R376 GND.n674 GND.n673 76
R377 GND.n671 GND.n670 76
R378 GND.n668 GND.n667 76
R379 GND.n665 GND.n664 76
R380 GND.n662 GND.n661 76
R381 GND.n659 GND.n658 76
R382 GND.n656 GND.n655 76
R383 GND.n653 GND.n652 76
R384 GND.n650 GND.n649 76
R385 GND.n647 GND.n646 76
R386 GND.n642 GND.n641 76
R387 GND.n639 GND.n638 76
R388 GND.n632 GND.n631 76
R389 GND.n629 GND.n628 76
R390 GND.n626 GND.n625 76
R391 GND.n623 GND.n622 76
R392 GND.n620 GND.n619 76
R393 GND.n617 GND.n616 76
R394 GND.n614 GND.n613 76
R395 GND.n611 GND.n610 76
R396 GND.n608 GND.n607 76
R397 GND.n605 GND.n604 76
R398 GND.n600 GND.n599 76
R399 GND.n597 GND.n596 76
R400 GND.n590 GND.n589 76
R401 GND.n587 GND.n586 76
R402 GND.n584 GND.n583 76
R403 GND.n581 GND.n580 76
R404 GND.n578 GND.n577 76
R405 GND.n575 GND.n574 76
R406 GND.n572 GND.n571 76
R407 GND.n569 GND.n568 76
R408 GND.n566 GND.n565 76
R409 GND.n563 GND.n562 76
R410 GND.n558 GND.n557 76
R411 GND.n555 GND.n554 76
R412 GND.n548 GND.n547 76
R413 GND.n545 GND.n544 76
R414 GND.n542 GND.n541 76
R415 GND.n539 GND.n538 76
R416 GND.n536 GND.n535 76
R417 GND.n533 GND.n532 76
R418 GND.n530 GND.n529 76
R419 GND.n527 GND.n526 76
R420 GND.n524 GND.n523 76
R421 GND.n521 GND.n520 76
R422 GND.n516 GND.n515 76
R423 GND.n513 GND.n512 76
R424 GND.n506 GND.n505 76
R425 GND.n503 GND.n502 76
R426 GND.n500 GND.n499 76
R427 GND.n497 GND.n496 76
R428 GND.n494 GND.n493 76
R429 GND.n491 GND.n490 76
R430 GND.n488 GND.n487 76
R431 GND.n485 GND.n484 76
R432 GND.n482 GND.n481 76
R433 GND.n479 GND.n478 76
R434 GND.n474 GND.n473 76
R435 GND.n471 GND.n470 76
R436 GND.n464 GND.n463 76
R437 GND.n461 GND.n460 76
R438 GND.n458 GND.n457 76
R439 GND.n455 GND.n454 76
R440 GND.n452 GND.n451 76
R441 GND.n449 GND.n448 76
R442 GND.n446 GND.n445 76
R443 GND.n443 GND.n442 76
R444 GND.n440 GND.n439 76
R445 GND.n437 GND.n436 76
R446 GND.n432 GND.n431 76
R447 GND.n12 GND.n11 76
R448 GND.n17 GND.n16 76
R449 GND.n20 GND.n19 76
R450 GND.n23 GND.n22 76
R451 GND.n30 GND.n29 76
R452 GND.n33 GND.n32 76
R453 GND.n36 GND.n35 76
R454 GND.n204 GND.n203 64.552
R455 GND.n777 GND.n776 64.552
R456 GND.n690 GND.n689 64.552
R457 GND.n8 GND.n7 34.942
R458 GND.n203 GND.n202 28.421
R459 GND.n776 GND.n775 28.421
R460 GND.n689 GND.n688 28.421
R461 GND.n203 GND.n201 25.263
R462 GND.n776 GND.n774 25.263
R463 GND.n689 GND.n687 25.263
R464 GND.n201 GND.n200 24.383
R465 GND.n774 GND.n773 24.383
R466 GND.n687 GND.n686 24.383
R467 GND.n5 GND.n4 14.167
R468 GND.n4 GND.n2 14.167
R469 GND.n29 GND.n27 14.167
R470 GND.n59 GND.n57 14.167
R471 GND.n89 GND.n87 14.167
R472 GND.n131 GND.n129 14.167
R473 GND.n173 GND.n171 14.167
R474 GND.n218 GND.n216 14.167
R475 GND.n260 GND.n258 14.167
R476 GND.n302 GND.n300 14.167
R477 GND.n344 GND.n342 14.167
R478 GND.n386 GND.n384 14.167
R479 GND.n425 GND.n424 14.167
R480 GND.n812 GND.n811 14.167
R481 GND.n767 GND.n766 14.167
R482 GND.n725 GND.n724 14.167
R483 GND.n680 GND.n679 14.167
R484 GND.n638 GND.n637 14.167
R485 GND.n596 GND.n595 14.167
R486 GND.n554 GND.n553 14.167
R487 GND.n512 GND.n511 14.167
R488 GND.n470 GND.n469 14.167
R489 GND.n431 GND.n430 13.653
R490 GND.n436 GND.n433 13.653
R491 GND.n439 GND.n438 13.653
R492 GND.n442 GND.n441 13.653
R493 GND.n445 GND.n444 13.653
R494 GND.n448 GND.n447 13.653
R495 GND.n451 GND.n450 13.653
R496 GND.n454 GND.n453 13.653
R497 GND.n457 GND.n456 13.653
R498 GND.n460 GND.n459 13.653
R499 GND.n463 GND.n462 13.653
R500 GND.n470 GND.n465 13.653
R501 GND.n473 GND.n472 13.653
R502 GND.n478 GND.n475 13.653
R503 GND.n481 GND.n480 13.653
R504 GND.n484 GND.n483 13.653
R505 GND.n487 GND.n486 13.653
R506 GND.n490 GND.n489 13.653
R507 GND.n493 GND.n492 13.653
R508 GND.n496 GND.n495 13.653
R509 GND.n499 GND.n498 13.653
R510 GND.n502 GND.n501 13.653
R511 GND.n505 GND.n504 13.653
R512 GND.n512 GND.n507 13.653
R513 GND.n515 GND.n514 13.653
R514 GND.n520 GND.n517 13.653
R515 GND.n523 GND.n522 13.653
R516 GND.n526 GND.n525 13.653
R517 GND.n529 GND.n528 13.653
R518 GND.n532 GND.n531 13.653
R519 GND.n535 GND.n534 13.653
R520 GND.n538 GND.n537 13.653
R521 GND.n541 GND.n540 13.653
R522 GND.n544 GND.n543 13.653
R523 GND.n547 GND.n546 13.653
R524 GND.n554 GND.n549 13.653
R525 GND.n557 GND.n556 13.653
R526 GND.n562 GND.n559 13.653
R527 GND.n565 GND.n564 13.653
R528 GND.n568 GND.n567 13.653
R529 GND.n571 GND.n570 13.653
R530 GND.n574 GND.n573 13.653
R531 GND.n577 GND.n576 13.653
R532 GND.n580 GND.n579 13.653
R533 GND.n583 GND.n582 13.653
R534 GND.n586 GND.n585 13.653
R535 GND.n589 GND.n588 13.653
R536 GND.n596 GND.n591 13.653
R537 GND.n599 GND.n598 13.653
R538 GND.n604 GND.n601 13.653
R539 GND.n607 GND.n606 13.653
R540 GND.n610 GND.n609 13.653
R541 GND.n613 GND.n612 13.653
R542 GND.n616 GND.n615 13.653
R543 GND.n619 GND.n618 13.653
R544 GND.n622 GND.n621 13.653
R545 GND.n625 GND.n624 13.653
R546 GND.n628 GND.n627 13.653
R547 GND.n631 GND.n630 13.653
R548 GND.n638 GND.n633 13.653
R549 GND.n641 GND.n640 13.653
R550 GND.n646 GND.n643 13.653
R551 GND.n649 GND.n648 13.653
R552 GND.n652 GND.n651 13.653
R553 GND.n655 GND.n654 13.653
R554 GND.n658 GND.n657 13.653
R555 GND.n661 GND.n660 13.653
R556 GND.n664 GND.n663 13.653
R557 GND.n667 GND.n666 13.653
R558 GND.n670 GND.n669 13.653