* SPICE3 file created from TMRDFFSNQX1.ext - technology: sky130A

.subckt TMRDFFSNQX1 Q D CLK SN VDD GND
M1000 a_8357_1050.t2 a_8483_411.t7 VDD.t24 pshort w=2u l=0.15u
+  ad=0p pd=0u as=0p ps=0u
M1001 a_3599_411.t3 a_3473_1050.t5 VDD.t93 pshort w=2u l=0.15u
+  ad=0p pd=0u as=0p ps=0u
M1002 VDD.t51 CLK.t0 a_6149_989.t1 pshort w=2u l=0.15u
+  ad=0p pd=0u as=0p ps=0u
M1003 VDD.t25 a_8483_411.t8 a_14869_1051.t3 pshort w=2u l=0.15u
+  ad=0p pd=0u as=0p ps=0u
M1004 GND a_11673_1050.t7 a_12470_101.t0 nshort w=-1.605u l=1.765u
+  ad=4.9019p pd=41.07u as=0p ps=0u
M1005 Q.t1 a_15044_209.t7 VDD.t20 pshort w=2u l=0.15u
+  ad=0p pd=0u as=0p ps=0u
M1006 a_343_411.t3 a_1265_989.t5 VDD.t11 pshort w=2u l=0.15u
+  ad=0p pd=0u as=0p ps=0u
M1007 a_13367_411.t3 a_11033_989.t5 VDD.t52 pshort w=2u l=0.15u
+  ad=0p pd=0u as=0p ps=0u
M1008 VDD.t65 a_343_411.t7 a_3473_1050.t2 pshort w=2u l=0.15u
+  ad=0p pd=0u as=0p ps=0u
M1009 a_5227_411.t6 a_5101_1050.t5 VDD.t70 pshort w=2u l=0.15u
+  ad=0p pd=0u as=0p ps=0u
M1010 VDD.t38 SN.t2 a_8483_411.t2 pshort w=2u l=0.15u
+  ad=0p pd=0u as=0p ps=0u
M1011 a_1265_989.t1 CLK.t1 VDD.t63 pshort w=2u l=0.15u
+  ad=0p pd=0u as=0p ps=0u
M1012 GND a_8483_411.t9 a_15430_101.t0 nshort w=-1.605u l=1.765u
+  ad=0p pd=0u as=0p ps=0u
M1013 VDD.t72 SN.t3 a_1905_1050.t4 pshort w=2u l=0.15u
+  ad=0p pd=0u as=0p ps=0u
M1014 a_11673_1050.t1 a_9985_1050.t6 VDD.t2 pshort w=2u l=0.15u
+  ad=0p pd=0u as=0p ps=0u
M1015 VDD.t81 CLK.t2 a_5227_411.t1 pshort w=2u l=0.15u
+  ad=0p pd=0u as=0p ps=0u
M1016 a_15533_1051.t3 a_3599_411.t7 a_15044_209.t1 pshort w=2u l=0.15u
+  ad=0p pd=0u as=0p ps=0u
M1017 a_3599_411.t6 SN.t4 VDD.t46 pshort w=2u l=0.15u
+  ad=0p pd=0u as=0p ps=0u
M1018 GND a_217_1050.t5 a_757_103.t0 nshort w=-1.605u l=1.765u
+  ad=0p pd=0u as=0p ps=0u
M1019 VDD.t9 CLK.t4 a_11033_989.t1 pshort w=2u l=0.15u
+  ad=0p pd=0u as=0p ps=0u
M1020 GND D.t2 a_112_101.t0 nshort w=-1.605u l=1.765u
+  ad=0p pd=0u as=0p ps=0u
M1021 VDD.t27 a_8357_1050.t5 a_8483_411.t1 pshort w=2u l=0.15u
+  ad=0p pd=0u as=0p ps=0u
M1022 a_5227_411.t0 CLK.t5 VDD.t19 pshort w=2u l=0.15u
+  ad=0p pd=0u as=0p ps=0u
M1023 GND a_343_411.t8 a_3368_101.t0 nshort w=-1.605u l=1.765u
+  ad=0p pd=0u as=0p ps=0u
M1024 VDD.t31 D.t0 a_5101_1050.t0 pshort w=2u l=0.15u
+  ad=0p pd=0u as=0p ps=0u
M1025 a_14869_1051.t0 a_3599_411.t8 a_15533_1051.t1 pshort w=2u l=0.15u
+  ad=0p pd=0u as=0p ps=0u
M1026 VDD.t14 D.t1 a_217_1050.t4 pshort w=2u l=0.15u
+  ad=0p pd=0u as=0p ps=0u
M1027 VDD.t67 a_1265_989.t7 a_1905_1050.t1 pshort w=2u l=0.15u
+  ad=0p pd=0u as=0p ps=0u
M1028 a_9985_1050.t4 a_10111_411.t7 VDD.t60 pshort w=2u l=0.15u
+  ad=0p pd=0u as=0p ps=0u
M1029 GND a_8357_1050.t6 a_8897_103.t0 nshort w=-1.605u l=1.765u
+  ad=0p pd=0u as=0p ps=0u
M1030 VDD.t16 a_5101_1050.t6 a_6789_1050.t4 pshort w=2u l=0.15u
+  ad=0p pd=0u as=0p ps=0u
M1031 a_15533_1051.t5 a_13367_411.t8 a_15044_209.t4 pshort w=2u l=0.15u
+  ad=0p pd=0u as=0p ps=0u
M1032 VDD.t87 a_11033_989.t7 a_11673_1050.t3 pshort w=2u l=0.15u
+  ad=0p pd=0u as=0p ps=0u
M1033 a_3599_411.t4 a_1265_989.t9 VDD.t28 pshort w=2u l=0.15u
+  ad=0p pd=0u as=0p ps=0u
M1034 a_6789_1050.t1 a_6149_989.t5 VDD.t95 pshort w=2u l=0.15u
+  ad=0p pd=0u as=0p ps=0u
M1035 a_13241_1050.t4 a_10111_411.t8 VDD.t89 pshort w=2u l=0.15u
+  ad=0p pd=0u as=0p ps=0u
M1036 a_1905_1050.t6 a_217_1050.t6 VDD.t61 pshort w=2u l=0.15u
+  ad=0p pd=0u as=0p ps=0u
M1037 VDD.t36 a_11673_1050.t8 a_11033_989.t3 pshort w=2u l=0.15u
+  ad=0p pd=0u as=0p ps=0u
M1038 a_14869_1051.t4 a_8483_411.t10 a_15533_1051.t7 pshort w=2u l=0.15u
+  ad=0p pd=0u as=0p ps=0u
M1039 VDD.t29 a_343_411.t9 a_217_1050.t1 pshort w=2u l=0.15u
+  ad=0p pd=0u as=0p ps=0u
M1040 VDD.t88 a_5227_411.t8 a_5101_1050.t4 pshort w=2u l=0.15u
+  ad=0p pd=0u as=0p ps=0u
M1041 GND D.t3 a_9880_101.t0 nshort w=-1.605u l=1.765u
+  ad=0p pd=0u as=0p ps=0u
M1042 VDD.t55 a_217_1050.t7 a_343_411.t6 pshort w=2u l=0.15u
+  ad=0p pd=0u as=0p ps=0u
M1043 a_11673_1050.t2 a_11033_989.t8 VDD.t13 pshort w=2u l=0.15u
+  ad=0p pd=0u as=0p ps=0u
M1044 VDD.t33 a_13241_1050.t5 a_13367_411.t0 pshort w=2u l=0.15u
+  ad=0p pd=0u as=0p ps=0u
M1045 GND a_217_1050.t8 a_1719_103.t0 nshort w=-1.605u l=1.765u
+  ad=0p pd=0u as=0p ps=0u
M1046 a_3473_1050.t4 a_3599_411.t9 VDD.t94 pshort w=2u l=0.15u
+  ad=0p pd=0u as=0p ps=0u
M1047 a_10111_411.t3 CLK.t7 VDD.t48 pshort w=2u l=0.15u
+  ad=0p pd=0u as=0p ps=0u
M1048 a_5227_411.t3 a_6149_989.t8 VDD.t84 pshort w=2u l=0.15u
+  ad=0p pd=0u as=0p ps=0u
M1049 a_13241_1050.t2 a_13367_411.t10 VDD.t66 pshort w=2u l=0.15u
+  ad=0p pd=0u as=0p ps=0u
M1050 VDD.t57 a_11033_989.t9 a_10111_411.t5 pshort w=2u l=0.15u
+  ad=0p pd=0u as=0p ps=0u
M1051 VDD.t5 a_5227_411.t9 a_8357_1050.t0 pshort w=2u l=0.15u
+  ad=0p pd=0u as=0p ps=0u
M1052 a_6149_989.t0 CLK.t8 VDD.t86 pshort w=2u l=0.15u
+  ad=0p pd=0u as=0p ps=0u
M1053 a_14869_1051.t2 a_8483_411.t11 VDD.t23 pshort w=2u l=0.15u
+  ad=0p pd=0u as=0p ps=0u
M1054 VDD.t62 a_6149_989.t9 a_8483_411.t4 pshort w=2u l=0.15u
+  ad=0p pd=0u as=0p ps=0u
M1055 a_13367_411.t6 a_13241_1050.t6 VDD.t71 pshort w=2u l=0.15u
+  ad=0p pd=0u as=0p ps=0u
M1056 VDD.t42 a_13367_411.t11 a_14869_1051.t7 pshort w=2u l=0.15u
+  ad=0p pd=0u as=0p ps=0u
M1057 VDD.t17 CLK.t9 a_343_411.t1 pshort w=2u l=0.15u
+  ad=0p pd=0u as=0p ps=0u
M1058 GND a_10111_411.t11 a_13136_101.t0 nshort w=-1.605u l=1.765u
+  ad=0p pd=0u as=0p ps=0u
M1059 GND a_1905_1050.t8 a_2702_101.t0 nshort w=-1.605u l=1.765u
+  ad=0p pd=0u as=0p ps=0u
M1060 a_3473_1050.t1 a_343_411.t10 VDD.t12 pshort w=2u l=0.15u
+  ad=0p pd=0u as=0p ps=0u
M1061 VDD.t18 a_1905_1050.t7 a_1265_989.t3 pshort w=2u l=0.15u
+  ad=0p pd=0u as=0p ps=0u
M1062 a_8483_411.t5 SN.t7 VDD.t73 pshort w=2u l=0.15u
+  ad=0p pd=0u as=0p ps=0u
M1063 VDD.t47 SN.t8 a_13367_411.t2 pshort w=2u l=0.15u
+  ad=0p pd=0u as=0p ps=0u
M1064 a_10111_411.t1 a_9985_1050.t7 VDD.t56 pshort w=2u l=0.15u
+  ad=0p pd=0u as=0p ps=0u
M1065 GND a_13241_1050.t7 a_13781_103.t0 nshort w=-1.605u l=1.765u
+  ad=0p pd=0u as=0p ps=0u
M1066 GND a_5227_411.t10 a_8252_101.t0 nshort w=-1.605u l=1.765u
+  ad=0p pd=0u as=0p ps=0u
M1067 a_15533_1051.t6 a_8483_411.t12 a_14869_1051.t5 pshort w=2u l=0.15u
+  ad=0p pd=0u as=0p ps=0u
M1068 VDD.t6 a_10111_411.t9 a_9985_1050.t1 pshort w=2u l=0.15u
+  ad=0p pd=0u as=0p ps=0u
M1069 Q a_15044_209.t9 GND.t5 nshort w=-1.605u l=1.765u
+  ad=0.1791p pd=1.57u as=0p ps=0u
M1070 VDD.t15 SN.t9 a_11673_1050.t6 pshort w=2u l=0.15u
+  ad=0p pd=0u as=0p ps=0u
M1071 GND a_5101_1050.t9 a_5641_103.t0 nshort w=-1.605u l=1.765u
+  ad=0p pd=0u as=0p ps=0u
M1072 a_6149_989.t4 a_6789_1050.t7 VDD.t90 pshort w=2u l=0.15u
+  ad=0p pd=0u as=0p ps=0u
M1073 VDD.t78 a_3473_1050.t6 a_3599_411.t2 pshort w=2u l=0.15u
+  ad=0p pd=0u as=0p ps=0u
M1074 VDD.t10 a_1265_989.t10 a_3599_411.t1 pshort w=2u l=0.15u
+  ad=0p pd=0u as=0p ps=0u
M1075 GND a_8483_411.t13 a_14764_101.t0 nshort w=-1.605u l=1.765u
+  ad=0p pd=0u as=0p ps=0u
M1076 VDD.t21 a_1265_989.t11 a_343_411.t2 pshort w=2u l=0.15u
+  ad=0p pd=0u as=0p ps=0u
M1077 a_8483_411.t6 a_8357_1050.t7 VDD.t80 pshort w=2u l=0.15u
+  ad=0p pd=0u as=0p ps=0u
M1078 VDD.t3 a_15044_209.t8 Q.t0 pshort w=2u l=0.15u
+  ad=0p pd=0u as=0p ps=0u
M1079 VDD.t68 a_11033_989.t11 a_13367_411.t4 pshort w=2u l=0.15u
+  ad=0p pd=0u as=0p ps=0u
M1080 VDD.t37 a_5101_1050.t7 a_5227_411.t5 pshort w=2u l=0.15u
+  ad=0p pd=0u as=0p ps=0u
M1081 a_8483_411.t0 a_6149_989.t10 VDD.t1 pshort w=2u l=0.15u
+  ad=0p pd=0u as=0p ps=0u
M1082 a_15533_1051.t0 a_3599_411.t11 a_14869_1051.t1 pshort w=2u l=0.15u
+  ad=0p pd=0u as=0p ps=0u
M1083 a_217_1050.t3 D.t4 VDD.t35 pshort w=2u l=0.15u
+  ad=0p pd=0u as=0p ps=0u
M1084 VDD.t40 D.t5 a_9985_1050.t3 pshort w=2u l=0.15u
+  ad=0p pd=0u as=0p ps=0u
M1085 a_1905_1050.t0 a_1265_989.t12 VDD.t4 pshort w=2u l=0.15u
+  ad=0p pd=0u as=0p ps=0u
M1086 a_6789_1050.t3 a_5101_1050.t8 VDD.t22 pshort w=2u l=0.15u
+  ad=0p pd=0u as=0p ps=0u
M1087 VDD.t50 a_9985_1050.t8 a_11673_1050.t0 pshort w=2u l=0.15u
+  ad=0p pd=0u as=0p ps=0u
M1088 GND a_5101_1050.t10 a_6603_103.t0 nshort w=-1.605u l=1.765u
+  ad=0p pd=0u as=0p ps=0u
M1089 a_15044_209.t6 a_13367_411.t12 a_15533_1051.t4 pshort w=2u l=0.15u
+  ad=0p pd=0u as=0p ps=0u
M1090 GND a_3473_1050.t7 a_4013_103.t0 nshort w=-1.605u l=1.765u
+  ad=0p pd=0u as=0p ps=0u
M1091 VDD.t77 SN.t12 a_3599_411.t5 pshort w=2u l=0.15u
+  ad=0p pd=0u as=0p ps=0u
M1092 VDD.t79 SN.t13 a_6789_1050.t6 pshort w=2u l=0.15u
+  ad=0p pd=0u as=0p ps=0u
M1093 a_11033_989.t4 a_11673_1050.t9 VDD.t41 pshort w=2u l=0.15u
+  ad=0p pd=0u as=0p ps=0u
M1094 GND a_6789_1050.t9 a_7586_101.t0 nshort w=-1.605u l=1.765u
+  ad=0p pd=0u as=0p ps=0u
M1095 a_1905_1050.t3 SN.t14 VDD.t8 pshort w=2u l=0.15u
+  ad=0p pd=0u as=0p ps=0u
M1096 a_217_1050.t0 a_343_411.t12 VDD.t64 pshort w=2u l=0.15u
+  ad=0p pd=0u as=0p ps=0u
M1097 a_5101_1050.t2 a_5227_411.t11 VDD.t58 pshort w=2u l=0.15u
+  ad=0p pd=0u as=0p ps=0u
M1098 GND a_9985_1050.t10 a_10525_103.t0 nshort w=-1.605u l=1.765u
+  ad=0p pd=0u as=0p ps=0u
M1099 GND a_3599_411.t14 a_16096_101.t0 nshort w=-1.605u l=1.765u
+  ad=0p pd=0u as=0p ps=0u
M1100 GND D.t7 a_4996_101.t0 nshort w=-1.605u l=1.765u
+  ad=0p pd=0u as=0p ps=0u
M1101 a_6789_1050.t5 SN.t15 VDD.t74 pshort w=2u l=0.15u
+  ad=0p pd=0u as=0p ps=0u
M1102 a_15044_209.t2 a_3599_411.t13 a_15533_1051.t2 pshort w=2u l=0.15u
+  ad=0p pd=0u as=0p ps=0u
M1103 VDD.t83 a_9985_1050.t9 a_10111_411.t0 pshort w=2u l=0.15u
+  ad=0p pd=0u as=0p ps=0u
M1104 a_343_411.t5 a_217_1050.t9 VDD.t44 pshort w=2u l=0.15u
+  ad=0p pd=0u as=0p ps=0u
M1105 VDD.t26 a_8483_411.t14 a_8357_1050.t1 pshort w=2u l=0.15u
+  ad=0p pd=0u as=0p ps=0u
M1106 VDD.t69 a_6149_989.t11 a_6789_1050.t0 pshort w=2u l=0.15u
+  ad=0p pd=0u as=0p ps=0u
M1107 a_10111_411.t4 a_11033_989.t13 VDD.t30 pshort w=2u l=0.15u
+  ad=0p pd=0u as=0p ps=0u
M1108 VDD.t45 a_10111_411.t12 a_13241_1050.t3 pshort w=2u l=0.15u
+  ad=0p pd=0u as=0p ps=0u
M1109 VDD.t59 a_217_1050.t10 a_1905_1050.t5 pshort w=2u l=0.15u
+  ad=0p pd=0u as=0p ps=0u
M1110 a_8357_1050.t4 a_5227_411.t12 VDD.t43 pshort w=2u l=0.15u
+  ad=0p pd=0u as=0p ps=0u
M1111 VDD.t7 a_6789_1050.t8 a_6149_989.t3 pshort w=2u l=0.15u
+  ad=0p pd=0u as=0p ps=0u
M1112 a_11033_989.t0 CLK.t13 VDD.t85 pshort w=2u l=0.15u
+  ad=0p pd=0u as=0p ps=0u
M1113 a_5101_1050.t1 D.t6 VDD.t32 pshort w=2u l=0.15u
+  ad=0p pd=0u as=0p ps=0u
M1114 a_14869_1051.t6 a_13367_411.t14 VDD.t39 pshort w=2u l=0.15u
+  ad=0p pd=0u as=0p ps=0u
M1115 a_343_411.t0 CLK.t14 VDD.t49 pshort w=2u l=0.15u
+  ad=0p pd=0u as=0p ps=0u
M1116 GND a_9985_1050.t5 a_11487_103.t0 nshort w=-1.605u l=1.765u
+  ad=0p pd=0u as=0p ps=0u
M1117 a_9985_1050.t0 D.t8 VDD.t0 pshort w=2u l=0.15u
+  ad=0p pd=0u as=0p ps=0u
M1118 a_13367_411.t1 SN.t16 VDD.t92 pshort w=2u l=0.15u
+  ad=0p pd=0u as=0p ps=0u
M1119 a_1265_989.t4 a_1905_1050.t9 VDD.t53 pshort w=2u l=0.15u
+  ad=0p pd=0u as=0p ps=0u
M1120 VDD.t91 a_3599_411.t15 a_3473_1050.t3 pshort w=2u l=0.15u
+  ad=0p pd=0u as=0p ps=0u
M1121 VDD.t82 CLK.t15 a_10111_411.t2 pshort w=2u l=0.15u
+  ad=0p pd=0u as=0p ps=0u
M1122 a_11673_1050.t5 SN.t17 VDD.t75 pshort w=2u l=0.15u
+  ad=0p pd=0u as=0p ps=0u
M1123 VDD.t76 CLK.t17 a_1265_989.t0 pshort w=2u l=0.15u
+  ad=0p pd=0u as=0p ps=0u
M1124 VDD.t34 a_6149_989.t13 a_5227_411.t2 pshort w=2u l=0.15u
+  ad=0p pd=0u as=0p ps=0u
M1125 VDD.t54 a_13367_411.t15 a_13241_1050.t1 pshort w=2u l=0.15u
+  ad=0p pd=0u as=0p ps=0u
C0 D SN 9.38fF
C1 VDD Q 0.76fF
C2 CLK SN 0.46fF
C3 VDD D 0.24fF
C4 VDD CLK 1.68fF
C5 D CLK 0.39fF
C6 VDD SN 0.30fF
R0 a_8483_411.n8 a_8483_411.t8 512.525
R1 a_8483_411.n6 a_8483_411.t10 477.179
R2 a_8483_411.n11 a_8483_411.t14 472.359
R3 a_8483_411.n6 a_8483_411.t12 406.485
R4 a_8483_411.n11 a_8483_411.t7 384.527
R5 a_8483_411.n8 a_8483_411.t11 371.139
R6 a_8483_411.n7 a_8483_411.t9 363.924
R7 a_8483_411.n10 a_8483_411.t13 277.053
R8 a_8483_411.n12 a_8483_411.t15 241.172
R9 a_8483_411.n16 a_8483_411.n14 213.104
R10 a_8483_411.n14 a_8483_411.n5 170.799
R11 a_8483_411.n12 a_8483_411.n11 110.06
R12 a_8483_411.n9 a_8483_411.n7 101.359
R13 a_8483_411.n13 a_8483_411.n10 94.999
R14 a_8483_411.n10 a_8483_411.n9 80.444
R15 a_8483_411.n13 a_8483_411.n12 80.035
R16 a_8483_411.n4 a_8483_411.n3 79.232
R17 a_8483_411.n14 a_8483_411.n13 76
R18 a_8483_411.n9 a_8483_411.n8 71.88
R19 a_8483_411.n5 a_8483_411.n4 63.152
R20 a_8483_411.n17 a_8483_411.n0 55.263
R21 a_8483_411.n16 a_8483_411.n15 30
R22 a_8483_411.n17 a_8483_411.n16 23.684
R23 a_8483_411.n5 a_8483_411.n1 16.08
R24 a_8483_411.n4 a_8483_411.n2 16.08
R25 a_8483_411.n7 a_8483_411.n6 15.776
R26 a_8483_411.n1 a_8483_411.t4 14.282
R27 a_8483_411.n1 a_8483_411.t0 14.282
R28 a_8483_411.n2 a_8483_411.t2 14.282
R29 a_8483_411.n2 a_8483_411.t5 14.282
R30 a_8483_411.n3 a_8483_411.t1 14.282
R31 a_8483_411.n3 a_8483_411.t6 14.282
R32 VDD.n839 VDD.n837 144.705
R33 VDD.n920 VDD.n918 144.705
R34 VDD.n1001 VDD.n999 144.705
R35 VDD.n1062 VDD.n1060 144.705
R36 VDD.n1123 VDD.n1121 144.705
R37 VDD.n1204 VDD.n1202 144.705
R38 VDD.n1265 VDD.n1263 144.705
R39 VDD.n1346 VDD.n1344 144.705
R40 VDD.n1427 VDD.n1425 144.705
R41 VDD.n744 VDD.n742 144.705
R42 VDD.n1488 VDD.n1486 144.705
R43 VDD.n663 VDD.n661 144.705
R44 VDD.n602 VDD.n600 144.705
R45 VDD.n521 VDD.n519 144.705
R46 VDD.n440 VDD.n438 144.705
R47 VDD.n379 VDD.n377 144.705
R48 VDD.n318 VDD.n316 144.705
R49 VDD.n237 VDD.n235 144.705
R50 VDD.n176 VDD.n174 144.705
R51 VDD.n122 VDD.n120 144.705
R52 VDD.n68 VDD.n66 144.705
R53 VDD.n26 VDD.n25 77.792
R54 VDD.n35 VDD.n34 77.792
R55 VDD.n29 VDD.n23 76.145
R56 VDD.n29 VDD.n28 76
R57 VDD.n33 VDD.n32 76
R58 VDD.n39 VDD.n38 76
R59 VDD.n43 VDD.n42 76
R60 VDD.n70 VDD.n69 76
R61 VDD.n74 VDD.n73 76
R62 VDD.n78 VDD.n77 76
R63 VDD.n82 VDD.n81 76
R64 VDD.n86 VDD.n85 76
R65 VDD.n90 VDD.n89 76
R66 VDD.n94 VDD.n93 76
R67 VDD.n98 VDD.n97 76
R68 VDD.n124 VDD.n123 76
R69 VDD.n128 VDD.n127 76
R70 VDD.n132 VDD.n131 76
R71 VDD.n136 VDD.n135 76
R72 VDD.n140 VDD.n139 76
R73 VDD.n144 VDD.n143 76
R74 VDD.n148 VDD.n147 76
R75 VDD.n152 VDD.n151 76
R76 VDD.n178 VDD.n177 76
R77 VDD.n183 VDD.n182 76
R78 VDD.n188 VDD.n187 76
R79 VDD.n194 VDD.n193 76
R80 VDD.n199 VDD.n198 76
R81 VDD.n204 VDD.n203 76
R82 VDD.n209 VDD.n208 76
R83 VDD.n213 VDD.n212 76
R84 VDD.n239 VDD.n238 76
R85 VDD.n243 VDD.n242 76
R86 VDD.n247 VDD.n246 76
R87 VDD.n252 VDD.n251 76
R88 VDD.n259 VDD.n258 76
R89 VDD.n264 VDD.n263 76
R90 VDD.n269 VDD.n268 76
R91 VDD.n276 VDD.n275 76
R92 VDD.n281 VDD.n280 76
R93 VDD.n286 VDD.n285 76
R94 VDD.n290 VDD.n289 76
R95 VDD.n294 VDD.n293 76
R96 VDD.n320 VDD.n319 76
R97 VDD.n325 VDD.n324 76
R98 VDD.n330 VDD.n329 76
R99 VDD.n336 VDD.n335 76
R100 VDD.n341 VDD.n340 76
R101 VDD.n346 VDD.n345 76
R102 VDD.n351 VDD.n350 76
R103 VDD.n355 VDD.n354 76
R104 VDD.n381 VDD.n380 76
R105 VDD.n386 VDD.n385 76
R106 VDD.n391 VDD.n390 76
R107 VDD.n397 VDD.n396 76
R108 VDD.n402 VDD.n401 76
R109 VDD.n407 VDD.n406 76
R110 VDD.n412 VDD.n411 76
R111 VDD.n416 VDD.n415 76
R112 VDD.n442 VDD.n441 76
R113 VDD.n446 VDD.n445 76
R114 VDD.n450 VDD.n449 76
R115 VDD.n455 VDD.n454 76
R116 VDD.n462 VDD.n461 76
R117 VDD.n467 VDD.n466 76
R118 VDD.n472 VDD.n471 76
R119 VDD.n479 VDD.n478 76
R120 VDD.n484 VDD.n483 76
R121 VDD.n489 VDD.n488 76
R122 VDD.n493 VDD.n492 76
R123 VDD.n497 VDD.n496 76
R124 VDD.n523 VDD.n522 76
R125 VDD.n527 VDD.n526 76
R126 VDD.n531 VDD.n530 76
R127 VDD.n536 VDD.n535 76
R128 VDD.n543 VDD.n542 76
R129 VDD.n548 VDD.n547 76
R130 VDD.n553 VDD.n552 76
R131 VDD.n560 VDD.n559 76
R132 VDD.n565 VDD.n564 76
R133 VDD.n570 VDD.n569 76
R134 VDD.n574 VDD.n573 76
R135 VDD.n578 VDD.n577 76
R136 VDD.n604 VDD.n603 76
R137 VDD.n609 VDD.n608 76
R138 VDD.n614 VDD.n613 76
R139 VDD.n620 VDD.n619 76
R140 VDD.n625 VDD.n624 76
R141 VDD.n630 VDD.n629 76
R142 VDD.n635 VDD.n634 76
R143 VDD.n639 VDD.n638 76
R144 VDD.n665 VDD.n664 76
R145 VDD.n669 VDD.n668 76
R146 VDD.n673 VDD.n672 76
R147 VDD.n678 VDD.n677 76
R148 VDD.n685 VDD.n684 76
R149 VDD.n690 VDD.n689 76
R150 VDD.n695 VDD.n694 76
R151 VDD.n702 VDD.n701 76
R152 VDD.n707 VDD.n706 76
R153 VDD.n712 VDD.n711 76
R154 VDD.n716 VDD.n715 76
R155 VDD.n720 VDD.n719 76
R156 VDD.n746 VDD.n745 76
R157 VDD.n751 VDD.n750 76
R158 VDD.n756 VDD.n755 76
R159 VDD.n1511 VDD.n1510 76
R160 VDD.n1505 VDD.n1504 76
R161 VDD.n1500 VDD.n1499 76
R162 VDD.n1495 VDD.n1494 76
R163 VDD.n1490 VDD.n1489 76
R164 VDD.n1464 VDD.n1463 76
R165 VDD.n1460 VDD.n1459 76
R166 VDD.n1455 VDD.n1454 76
R167 VDD.n1450 VDD.n1449 76
R168 VDD.n1444 VDD.n1443 76
R169 VDD.n1439 VDD.n1438 76
R170 VDD.n1434 VDD.n1433 76
R171 VDD.n1429 VDD.n1428 76
R172 VDD.n1403 VDD.n1402 76
R173 VDD.n1399 VDD.n1398 76
R174 VDD.n1395 VDD.n1394 76
R175 VDD.n1391 VDD.n1390 76
R176 VDD.n1386 VDD.n1385 76
R177 VDD.n1379 VDD.n1378 76
R178 VDD.n1374 VDD.n1373 76
R179 VDD.n1369 VDD.n1368 76
R180 VDD.n1362 VDD.n1361 76
R181 VDD.n1357 VDD.n1356 76
R182 VDD.n1352 VDD.n1351 76
R183 VDD.n1348 VDD.n1347 76
R184 VDD.n1322 VDD.n1321 76
R185 VDD.n1318 VDD.n1317 76
R186 VDD.n1314 VDD.n1313 76
R187 VDD.n1310 VDD.n1309 76
R188 VDD.n1305 VDD.n1304 76
R189 VDD.n1298 VDD.n1297 76
R190 VDD.n1293 VDD.n1292 76
R191 VDD.n1288 VDD.n1287 76
R192 VDD.n1281 VDD.n1280 76
R193 VDD.n1276 VDD.n1275 76
R194 VDD.n1271 VDD.n1270 76
R195 VDD.n1267 VDD.n1266 76
R196 VDD.n1241 VDD.n1240 76
R197 VDD.n1237 VDD.n1236 76
R198 VDD.n1232 VDD.n1231 76
R199 VDD.n1227 VDD.n1226 76
R200 VDD.n1221 VDD.n1220 76
R201 VDD.n1216 VDD.n1215 76
R202 VDD.n1211 VDD.n1210 76
R203 VDD.n1206 VDD.n1205 76
R204 VDD.n1180 VDD.n1179 76
R205 VDD.n1176 VDD.n1175 76
R206 VDD.n1172 VDD.n1171 76
R207 VDD.n1168 VDD.n1167 76
R208 VDD.n1163 VDD.n1162 76
R209 VDD.n1156 VDD.n1155 76
R210 VDD.n1151 VDD.n1150 76
R211 VDD.n1146 VDD.n1145 76
R212 VDD.n1139 VDD.n1138 76
R213 VDD.n1134 VDD.n1133 76
R214 VDD.n1129 VDD.n1128 76
R215 VDD.n1125 VDD.n1124 76
R216 VDD.n1099 VDD.n1098 76
R217 VDD.n1095 VDD.n1094 76
R218 VDD.n1090 VDD.n1089 76
R219 VDD.n1085 VDD.n1084 76
R220 VDD.n1079 VDD.n1078 76
R221 VDD.n1074 VDD.n1073 76
R222 VDD.n1069 VDD.n1068 76
R223 VDD.n1064 VDD.n1063 76
R224 VDD.n1038 VDD.n1037 76
R225 VDD.n1034 VDD.n1033 76
R226 VDD.n1029 VDD.n1028 76
R227 VDD.n1024 VDD.n1023 76
R228 VDD.n1018 VDD.n1017 76
R229 VDD.n1013 VDD.n1012 76
R230 VDD.n1008 VDD.n1007 76
R231 VDD.n1003 VDD.n1002 76
R232 VDD.n977 VDD.n976 76
R233 VDD.n973 VDD.n972 76
R234 VDD.n969 VDD.n968 76
R235 VDD.n965 VDD.n964 76
R236 VDD.n960 VDD.n959 76
R237 VDD.n953 VDD.n952 76
R238 VDD.n948 VDD.n947 76
R239 VDD.n943 VDD.n942 76
R240 VDD.n936 VDD.n935 76
R241 VDD.n931 VDD.n930 76
R242 VDD.n926 VDD.n925 76
R243 VDD.n922 VDD.n921 76
R244 VDD.n896 VDD.n895 76
R245 VDD.n892 VDD.n891 76
R246 VDD.n888 VDD.n887 76
R247 VDD.n884 VDD.n883 76
R248 VDD.n879 VDD.n878 76
R249 VDD.n872 VDD.n871 76
R250 VDD.n867 VDD.n866 76
R251 VDD.n862 VDD.n861 76
R252 VDD.n855 VDD.n854 76
R253 VDD.n850 VDD.n849 76
R254 VDD.n845 VDD.n844 76
R255 VDD.n841 VDD.n840 76
R256 VDD.n814 VDD.n813 76
R257 VDD.n810 VDD.n809 76
R258 VDD.n805 VDD.n804 76
R259 VDD.n800 VDD.n799 76
R260 VDD.n794 VDD.n793 76
R261 VDD.n789 VDD.n788 76
R262 VDD.n784 VDD.n783 76
R263 VDD.n779 VDD.n778 76
R264 VDD.n249 VDD.n248 64.064
R265 VDD.n452 VDD.n451 64.064
R266 VDD.n533 VDD.n532 64.064
R267 VDD.n675 VDD.n674 64.064
R268 VDD.n1388 VDD.n1387 64.064
R269 VDD.n1307 VDD.n1306 64.064
R270 VDD.n1165 VDD.n1164 64.064
R271 VDD.n962 VDD.n961 64.064
R272 VDD.n881 VDD.n880 64.064
R273 VDD.n278 VDD.n277 59.488
R274 VDD.n481 VDD.n480 59.488
R275 VDD.n562 VDD.n561 59.488
R276 VDD.n704 VDD.n703 59.488
R277 VDD.n1359 VDD.n1358 59.488
R278 VDD.n1278 VDD.n1277 59.488
R279 VDD.n1136 VDD.n1135 59.488
R280 VDD.n933 VDD.n932 59.488
R281 VDD.n852 VDD.n851 59.488
R282 VDD.n205 VDD.t23 55.465
R283 VDD.n179 VDD.t42 55.465
R284 VDD.n780 VDD.t35 55.106
R285 VDD.n846 VDD.t44 55.106
R286 VDD.n927 VDD.t61 55.106
R287 VDD.n1004 VDD.t53 55.106
R288 VDD.n1065 VDD.t12 55.106
R289 VDD.n1130 VDD.t93 55.106
R290 VDD.n1207 VDD.t32 55.106
R291 VDD.n1272 VDD.t70 55.106
R292 VDD.n1353 VDD.t22 55.106
R293 VDD.n1430 VDD.t90 55.106
R294 VDD.n1491 VDD.t43 55.106
R295 VDD.n708 VDD.t80 55.106
R296 VDD.n631 VDD.t0 55.106
R297 VDD.n566 VDD.t56 55.106
R298 VDD.n485 VDD.t2 55.106
R299 VDD.n408 VDD.t41 55.106
R300 VDD.n347 VDD.t89 55.106
R301 VDD.n282 VDD.t71 55.106
R302 VDD.n37 VDD.t20 55.106
R303 VDD.n24 VDD.t3 55.106
R304 VDD.n887 VDD.t21 55.106
R305 VDD.n968 VDD.t67 55.106
R306 VDD.n1171 VDD.t10 55.106
R307 VDD.n1313 VDD.t34 55.106
R308 VDD.n1394 VDD.t69 55.106
R309 VDD.n672 VDD.t62 55.106
R310 VDD.n530 VDD.t57 55.106
R311 VDD.n449 VDD.t87 55.106
R312 VDD.n246 VDD.t68 55.106
R313 VDD.n806 VDD.t29 55.106
R314 VDD.n1030 VDD.t76 55.106
R315 VDD.n1091 VDD.t91 55.106
R316 VDD.n1233 VDD.t88 55.106
R317 VDD.n1456 VDD.t51 55.106
R318 VDD.n747 VDD.t26 55.106
R319 VDD.n605 VDD.t6 55.106
R320 VDD.n382 VDD.t9 55.106
R321 VDD.n321 VDD.t54 55.106
R322 VDD.n190 VDD.n189 41.183
R323 VDD.n796 VDD.n795 40.824
R324 VDD.n857 VDD.n856 40.824
R325 VDD.n877 VDD.n876 40.824
R326 VDD.n938 VDD.n937 40.824
R327 VDD.n958 VDD.n957 40.824
R328 VDD.n1020 VDD.n1019 40.824
R329 VDD.n1081 VDD.n1080 40.824
R330 VDD.n1141 VDD.n1140 40.824
R331 VDD.n1161 VDD.n1160 40.824
R332 VDD.n1223 VDD.n1222 40.824
R333 VDD.n1283 VDD.n1282 40.824
R334 VDD.n1303 VDD.n1302 40.824
R335 VDD.n1364 VDD.n1363 40.824
R336 VDD.n1384 VDD.n1383 40.824
R337 VDD.n1446 VDD.n1445 40.824
R338 VDD.n1507 VDD.n1506 40.824
R339 VDD.n697 VDD.n696 40.824
R340 VDD.n683 VDD.n682 40.824
R341 VDD.n616 VDD.n615 40.824
R342 VDD.n555 VDD.n554 40.824
R343 VDD.n541 VDD.n540 40.824
R344 VDD.n474 VDD.n473 40.824
R345 VDD.n460 VDD.n459 40.824
R346 VDD.n393 VDD.n392 40.824
R347 VDD.n332 VDD.n331 40.824
R348 VDD.n271 VDD.n270 40.824
R349 VDD.n257 VDD.n256 40.824
R350 VDD.n901 VDD.n900 36.774
R351 VDD.n982 VDD.n981 36.774
R352 VDD.n1043 VDD.n1042 36.774
R353 VDD.n1104 VDD.n1103 36.774
R354 VDD.n1185 VDD.n1184 36.774
R355 VDD.n1246 VDD.n1245 36.774
R356 VDD.n1327 VDD.n1326 36.774
R357 VDD.n1408 VDD.n1407 36.774
R358 VDD.n1469 VDD.n1468 36.774
R359 VDD.n725 VDD.n724 36.774
R360 VDD.n644 VDD.n643 36.774
R361 VDD.n583 VDD.n582 36.774
R362 VDD.n502 VDD.n501 36.774
R363 VDD.n421 VDD.n420 36.774
R364 VDD.n360 VDD.n359 36.774
R365 VDD.n299 VDD.n298 36.774
R366 VDD.n218 VDD.n217 36.774
R367 VDD.n157 VDD.n156 36.774
R368 VDD.n103 VDD.n102 36.774
R369 VDD.n48 VDD.n47 36.774
R370 VDD.n830 VDD.n829 36.774
R371 VDD.n185 VDD.n184 36.608
R372 VDD.n327 VDD.n326 36.608
R373 VDD.n388 VDD.n387 36.608
R374 VDD.n611 VDD.n610 36.608
R375 VDD.n753 VDD.n752 36.608
R376 VDD.n1452 VDD.n1451 36.608
R377 VDD.n1229 VDD.n1228 36.608
R378 VDD.n1087 VDD.n1086 36.608
R379 VDD.n1026 VDD.n1025 36.608
R380 VDD.n802 VDD.n801 36.608
R381 VDD.n201 VDD.n200 32.032
R382 VDD.n343 VDD.n342 32.032
R383 VDD.n404 VDD.n403 32.032
R384 VDD.n627 VDD.n626 32.032
R385 VDD.n1497 VDD.n1496 32.032
R386 VDD.n1436 VDD.n1435 32.032
R387 VDD.n1213 VDD.n1212 32.032
R388 VDD.n1071 VDD.n1070 32.032
R389 VDD.n1010 VDD.n1009 32.032
R390 VDD.n786 VDD.n785 32.032
R391 VDD.n254 VDD.n253 27.456
R392 VDD.n457 VDD.n456 27.456
R393 VDD.n538 VDD.n537 27.456
R394 VDD.n680 VDD.n679 27.456
R395 VDD.n1381 VDD.n1380 27.456
R396 VDD.n1300 VDD.n1299 27.456
R397 VDD.n1158 VDD.n1157 27.456
R398 VDD.n955 VDD.n954 27.456
R399 VDD.n874 VDD.n873 27.456
R400 VDD.n273 VDD.n272 22.88
R401 VDD.n476 VDD.n475 22.88
R402 VDD.n557 VDD.n556 22.88
R403 VDD.n699 VDD.n698 22.88
R404 VDD.n1366 VDD.n1365 22.88
R405 VDD.n1285 VDD.n1284 22.88
R406 VDD.n1143 VDD.n1142 22.88
R407 VDD.n940 VDD.n939 22.88
R408 VDD.n859 VDD.n858 22.88
R409 VDD.n778 VDD.n775 21.841
R410 VDD.n23 VDD.n20 21.841
R411 VDD.n795 VDD.t64 14.282
R412 VDD.n795 VDD.t14 14.282
R413 VDD.n856 VDD.t49 14.282
R414 VDD.n856 VDD.t55 14.282
R415 VDD.n876 VDD.t11 14.282
R416 VDD.n876 VDD.t17 14.282
R417 VDD.n937 VDD.t8 14.282
R418 VDD.n937 VDD.t59 14.282
R419 VDD.n957 VDD.t4 14.282
R420 VDD.n957 VDD.t72 14.282
R421 VDD.n1019 VDD.t63 14.282
R422 VDD.n1019 VDD.t18 14.282
R423 VDD.n1080 VDD.t94 14.282
R424 VDD.n1080 VDD.t65 14.282
R425 VDD.n1140 VDD.t46 14.282
R426 VDD.n1140 VDD.t78 14.282
R427 VDD.n1160 VDD.t28 14.282
R428 VDD.n1160 VDD.t77 14.282
R429 VDD.n1222 VDD.t58 14.282
R430 VDD.n1222 VDD.t31 14.282
R431 VDD.n1282 VDD.t19 14.282
R432 VDD.n1282 VDD.t37 14.282
R433 VDD.n1302 VDD.t84 14.282
R434 VDD.n1302 VDD.t81 14.282
R435 VDD.n1363 VDD.t74 14.282
R436 VDD.n1363 VDD.t16 14.282
R437 VDD.n1383 VDD.t95 14.282
R438 VDD.n1383 VDD.t79 14.282
R439 VDD.n1445 VDD.t86 14.282
R440 VDD.n1445 VDD.t7 14.282
R441 VDD.n1506 VDD.t24 14.282
R442 VDD.n1506 VDD.t5 14.282
R443 VDD.n696 VDD.t73 14.282
R444 VDD.n696 VDD.t27 14.282
R445 VDD.n682 VDD.t1 14.282
R446 VDD.n682 VDD.t38 14.282
R447 VDD.n615 VDD.t60 14.282
R448 VDD.n615 VDD.t40 14.282
R449 VDD.n554 VDD.t48 14.282
R450 VDD.n554 VDD.t83 14.282
R451 VDD.n540 VDD.t30 14.282
R452 VDD.n540 VDD.t82 14.282
R453 VDD.n473 VDD.t75 14.282
R454 VDD.n473 VDD.t50 14.282
R455 VDD.n459 VDD.t13 14.282
R456 VDD.n459 VDD.t15 14.282
R457 VDD.n392 VDD.t85 14.282
R458 VDD.n392 VDD.t36 14.282
R459 VDD.n331 VDD.t66 14.282
R460 VDD.n331 VDD.t45 14.282
R461 VDD.n270 VDD.t92 14.282
R462 VDD.n270 VDD.t33 14.282
R463 VDD.n256 VDD.t52 14.282
R464 VDD.n256 VDD.t47 14.282
R465 VDD.n189 VDD.t39 14.282
R466 VDD.n189 VDD.t25 14.282
R467 VDD.n775 VDD.n758 14.167
R468 VDD.n758 VDD.n757 14.167
R469 VDD.n916 VDD.n898 14.167
R470 VDD.n898 VDD.n897 14.167
R471 VDD.n997 VDD.n979 14.167
R472 VDD.n979 VDD.n978 14.167
R473 VDD.n1058 VDD.n1040 14.167
R474 VDD.n1040 VDD.n1039 14.167
R475 VDD.n1119 VDD.n1101 14.167
R476 VDD.n1101 VDD.n1100 14.167
R477 VDD.n1200 VDD.n1182 14.167
R478 VDD.n1182 VDD.n1181 14.167
R479 VDD.n1261 VDD.n1243 14.167
R480 VDD.n1243 VDD.n1242 14.167
R481 VDD.n1342 VDD.n1324 14.167
R482 VDD.n1324 VDD.n1323 14.167
R483 VDD.n1423 VDD.n1405 14.167
R484 VDD.n1405 VDD.n1404 14.167
R485 VDD.n1484 VDD.n1466 14.167
R486 VDD.n1466 VDD.n1465 14.167
R487 VDD.n740 VDD.n722 14.167
R488 VDD.n722 VDD.n721 14.167
R489 VDD.n659 VDD.n641 14.167
R490 VDD.n641 VDD.n640 14.167
R491 VDD.n598 VDD.n580 14.167
R492 VDD.n580 VDD.n579 14.167
R493 VDD.n517 VDD.n499 14.167
R494 VDD.n499 VDD.n498 14.167
R495 VDD.n436 VDD.n418 14.167
R496 VDD.n418 VDD.n417 14.167
R497 VDD.n375 VDD.n357 14.167
R498 VDD.n357 VDD.n356 14.167
R499 VDD.n314 VDD.n296 14.167
R500 VDD.n296 VDD.n295 14.167
R501 VDD.n233 VDD.n215 14.167
R502 VDD.n215 VDD.n214 14.167
R503 VDD.n172 VDD.n154 14.167
R504 VDD.n154 VDD.n153 14.167
R505 VDD.n118 VDD.n100 14.167
R506 VDD.n100 VDD.n99 14.167
R507 VDD.n64 VDD.n45 14.167
R508 VDD.n45 VDD.n44 14.167
R509 VDD.n835 VDD.n816 14.167
R510 VDD.n816 VDD.n815 14.167
R511 VDD.n20 VDD.n19 14.167
R512 VDD.n19 VDD.n17 14.167
R513 VDD.n69 VDD.n65 14.167
R514 VDD.n123 VDD.n119 14.167
R515 VDD.n177 VDD.n173 14.167
R516 VDD.n238 VDD.n234 14.167
R517 VDD.n319 VDD.n315 14.167
R518 VDD.n380 VDD.n376 14.167
R519 VDD.n441 VDD.n437 14.167
R520 VDD.n522 VDD.n518 14.167
R521 VDD.n603 VDD.n599 14.167
R522 VDD.n664 VDD.n660 14.167
R523 VDD.n745 VDD.n741 14.167
R524 VDD.n1489 VDD.n1485 14.167
R525 VDD.n1428 VDD.n1424 14.167
R526 VDD.n1347 VDD.n1343 14.167
R527 VDD.n1266 VDD.n1262 14.167
R528 VDD.n1205 VDD.n1201 14.167
R529 VDD.n1124 VDD.n1120 14.167
R530 VDD.n1063 VDD.n1059 14.167
R531 VDD.n1002 VDD.n998 14.167
R532 VDD.n921 VDD.n917 14.167
R533 VDD.n840 VDD.n836 14.167
R534 VDD.n266 VDD.n265 13.728
R535 VDD.n469 VDD.n468 13.728
R536 VDD.n550 VDD.n549 13.728
R537 VDD.n692 VDD.n691 13.728
R538 VDD.n1371 VDD.n1370 13.728
R539 VDD.n1290 VDD.n1289 13.728
R540 VDD.n1148 VDD.n1147 13.728
R541 VDD.n945 VDD.n944 13.728
R542 VDD.n864 VDD.n863 13.728
R543 VDD.n23 VDD.n22 13.653
R544 VDD.n22 VDD.n21 13.653
R545 VDD.n28 VDD.n27 13.653
R546 VDD.n27 VDD.n26 13.653
R547 VDD.n32 VDD.n31 13.653
R548 VDD.n31 VDD.n30 13.653
R549 VDD.n38 VDD.n36 13.653
R550 VDD.n36 VDD.n35 13.653
R551 VDD.n42 VDD.n41 13.653
R552 VDD.n41 VDD.n40 13.653
R553 VDD.n69 VDD.n68 13.653
R554 VDD.n68 VDD.n67 13.653
R555 VDD.n73 VDD.n72 13.653
R556 VDD.n72 VDD.n71 13.653
R557 VDD.n77 VDD.n76 13.653
R558 VDD.n76 VDD.n75 13.653
R559 VDD.n81 VDD.n80 13.653
R560 VDD.n80 VDD.n79 13.653
R561 VDD.n85 VDD.n84 13.653
R562 VDD.n84 VDD.n83 13.653
R563 VDD.n89 VDD.n88 13.653
R564 VDD.n88 VDD.n87 13.653
R565 VDD.n93 VDD.n92 13.653
R566 VDD.n92 VDD.n91 13.653
R567 VDD.n97 VDD.n96 13.653
R568 VDD.n96 VDD.n95 13.653
R569 VDD.n123 VDD.n122 13.653
R570 VDD.n122 VDD.n121 13.653
R571 VDD.n127 VDD.n126 13.653
R572 VDD.n126 VDD.n125 13.653
R573 VDD.n131 VDD.n130 13.653
R574 VDD.n130 VDD.n129 13.653
R575 VDD.n135 VDD.n134 13.653
R576 VDD.n134 VDD.n133 13.653
R577 VDD.n139 VDD.n138 13.653
R578 VDD.n138 VDD.n137 13.653
R579 VDD.n143 VDD.n142 13.653
R580 VDD.n142 VDD.n141 13.653
R581 VDD.n147 VDD.n146 13.653
R582 VDD.n146 VDD.n145 13.653
R583 VDD.n151 VDD.n150 13.653
R584 VDD.n150 VDD.n149 13.653
R585 VDD.n177 VDD.n176 13.653
R586 VDD.n176 VDD.n175 13.653
R587 VDD.n182 VDD.n181 13.653
R588 VDD.n181 VDD.n180 13.653
R589 VDD.n187 VDD.n186 13.653
R590 VDD.n186 VDD.n185 13.653
R591 VDD.n193 VDD.n192 13.653
R592 VDD.n192 VDD.n191 13.653
R593 VDD.n198 VDD.n197 13.653
R594 VDD.n197 VDD.n196 13.653
R595 VDD.n203 VDD.n202 13.653
R596 VDD.n202 VDD.n201 13.653
R597 VDD.n208 VDD.n207 13.653
R598 VDD.n207 VDD.n206 13.653
R599 VDD.n212 VDD.n211 13.653
R600 VDD.n211 VDD.n210 13.653
R601 VDD.n238 VDD.n237 13.653
R602 VDD.n237 VDD.n236 13.653
R603 VDD.n242 VDD.n241 13.653
R604 VDD.n241 VDD.n240 13.653
R605 VDD.n246 VDD.n245 13.653
R606 VDD.n245 VDD.n244 13.653
R607 VDD.n251 VDD.n250 13.653
R608 VDD.n250 VDD.n249 13.653
R609 VDD.n258 VDD.n255 13.653
R610 VDD.n255 VDD.n254 13.653
R611 VDD.n263 VDD.n262 13.653
R612 VDD.n262 VDD.n261 13.653
R613 VDD.n268 VDD.n267 13.653
R614 VDD.n267 VDD.n266 13.653
R615 VDD.n275 VDD.n274 13.653
R616 VDD.n274 VDD.n273 13.653
R617 VDD.n280 VDD.n279 13.653
R618 VDD.n279 VDD.n278 13.653
R619 VDD.n285 VDD.n284 13.653
R620 VDD.n284 VDD.n283 13.653
R621 VDD.n289 VDD.n288 13.653
R622 VDD.n288 VDD.n287 13.653
R623 VDD.n293 VDD.n292 13.653
R624 VDD.n292 VDD.n291 13.653
R625 VDD.n319 VDD.n318 13.653
R626 VDD.n318 VDD.n317 13.653
R627 VDD.n324 VDD.n323 13.653
R628 VDD.n323 VDD.n322 13.653
R629 VDD.n329 VDD.n328 13.653
R630 VDD.n328 VDD.n327 13.653
R631 VDD.n335 VDD.n334 13.653
R632 VDD.n334 VDD.n333 13.653
R633 VDD.n340 VDD.n339 13.653