* SPICE3 file created from TMRDFFRNQX1.ext - technology: sky130A

.subckt TMRDFFRNQX1 Q D CLK RN VDD GND
M1000 a_5779_989.t2 RN.t0 VDD.t35 pshort w=2u l=0.15u
+  ad=0p pd=0u as=0p ps=0u
M1001 a_9009_1050.t2 a_9331_989.t5 VDD.t22 pshort w=2u l=0.15u
+  ad=0p pd=0u as=0p ps=0u
M1002 Q.t2 a_15932_209.t7 VDD.t101 pshort w=2u l=0.15u
+  ad=0p pd=0u as=0p ps=0u
M1003 a_5457_1050.t6 CLK.t0 VDD.t95 pshort w=2u l=0.15u
+  ad=0p pd=0u as=0p ps=0u
M1004 GND a_9331_989.t7 a_16318_101.t0 nshort w=-1.605u l=1.765u
+  ad=4.9019p pd=41.07u as=0p ps=0u
M1005 a_15757_1051.t3 a_9331_989.t6 a_16421_1051.t0 pshort w=2u l=0.15u
+  ad=0p pd=0u as=0p ps=0u
M1006 VDD.t64 a_14511_989.t5 a_14189_1050.t5 pshort w=2u l=0.15u
+  ad=0p pd=0u as=0p ps=0u
M1007 VDD.t39 RN.t1 a_147_187.t3 pshort w=2u l=0.15u
+  ad=0p pd=0u as=0p ps=0u
M1008 GND a_5457_1050.t7 a_8823_103.t0 nshort w=-1.605u l=1.765u
+  ad=0p pd=0u as=0p ps=0u
M1009 VDD.t23 a_147_187.t8 a_4151_989.t3 pshort w=2u l=0.15u
+  ad=0p pd=0u as=0p ps=0u
M1010 VDD.t76 a_5327_187.t7 a_7321_1050.t1 pshort w=2u l=0.15u
+  ad=0p pd=0u as=0p ps=0u
M1011 a_16421_1051.t6 a_4151_989.t5 a_15932_209.t5 pshort w=2u l=0.15u
+  ad=0p pd=0u as=0p ps=0u
M1012 a_14511_989.t0 a_14189_1050.t7 VDD.t10 pshort w=2u l=0.15u
+  ad=0p pd=0u as=0p ps=0u
M1013 a_12501_1050.t1 a_10959_989.t8 VDD.t3 pshort w=2u l=0.15u
+  ad=0p pd=0u as=0p ps=0u
M1014 GND a_5457_1050.t8 a_6233_103.t0 nshort w=-1.605u l=1.765u
+  ad=0p pd=0u as=0p ps=0u
M1015 VDD.t31 RN.t3 a_10959_989.t0 pshort w=2u l=0.15u
+  ad=0p pd=0u as=0p ps=0u
M1016 a_5457_1050.t1 a_5779_989.t7 VDD.t79 pshort w=2u l=0.15u
+  ad=0p pd=0u as=0p ps=0u
M1017 a_5327_187.t1 RN.t5 VDD.t43 pshort w=2u l=0.15u
+  ad=0p pd=0u as=0p ps=0u
M1018 GND a_9009_1050.t8 a_9806_101.t0 nshort w=-1.605u l=1.765u
+  ad=0p pd=0u as=0p ps=0u
M1019 VDD.t8 a_147_187.t9 a_277_1050.t2 pshort w=2u l=0.15u
+  ad=0p pd=0u as=0p ps=0u
M1020 a_15757_1051.t6 a_4151_989.t6 a_16421_1051.t5 pshort w=2u l=0.15u
+  ad=0p pd=0u as=0p ps=0u
M1021 VDD.t60 a_10507_187.t9 a_10637_1050.t4 pshort w=2u l=0.15u
+  ad=0p pd=0u as=0p ps=0u
M1022 VDD.t14 a_12501_1050.t5 a_10507_187.t0 pshort w=2u l=0.15u
+  ad=0p pd=0u as=0p ps=0u
M1023 GND a_5779_989.t9 a_7216_101.t0 nshort w=-1.605u l=1.765u
+  ad=0p pd=0u as=0p ps=0u
M1024 VDD.t32 RN.t6 a_10507_187.t3 pshort w=2u l=0.15u
+  ad=0p pd=0u as=0p ps=0u
M1025 GND a_147_187.t10 a_91_103.t0 nshort w=-1.605u l=1.765u
+  ad=0p pd=0u as=0p ps=0u
M1026 a_14189_1050.t6 a_10637_1050.t7 VDD.t70 pshort w=2u l=0.15u
+  ad=0p pd=0u as=0p ps=0u
M1027 GND a_7321_1050.t5 a_7861_103.t0 nshort w=-1.605u l=1.765u
+  ad=0p pd=0u as=0p ps=0u
M1028 a_10959_989.t4 a_10637_1050.t8 VDD.t80 pshort w=2u l=0.15u
+  ad=0p pd=0u as=0p ps=0u
M1029 a_599_989.t4 D.t1 VDD.t17 pshort w=2u l=0.15u
+  ad=0p pd=0u as=0p ps=0u
M1030 a_16421_1051.t7 a_14511_989.t7 a_15932_209.t6 pshort w=2u l=0.15u
+  ad=0p pd=0u as=0p ps=0u
M1031 Q a_15932_209.t8 GND.t13 nshort w=-1.605u l=1.765u
+  ad=0.1791p pd=1.57u as=0p ps=0u
M1032 GND a_5327_187.t9 a_5271_103.t0 nshort w=-1.605u l=1.765u
+  ad=0p pd=0u as=0p ps=0u
M1033 a_5327_187.t5 CLK.t3 VDD.t85 pshort w=2u l=0.15u
+  ad=0p pd=0u as=0p ps=0u
M1034 VDD.t82 a_599_989.t8 a_2141_1050.t4 pshort w=2u l=0.15u
+  ad=0p pd=0u as=0p ps=0u
M1035 a_9331_989.t1 a_9009_1050.t7 VDD.t62 pshort w=2u l=0.15u
+  ad=0p pd=0u as=0p ps=0u
M1036 VDD.t54 CLK.t4 a_277_1050.t6 pshort w=2u l=0.15u
+  ad=0p pd=0u as=0p ps=0u
M1037 VDD.t100 a_5457_1050.t9 a_5779_989.t6 pshort w=2u l=0.15u
+  ad=0p pd=0u as=0p ps=0u
M1038 VDD.t57 a_5457_1050.t10 a_9009_1050.t6 pshort w=2u l=0.15u
+  ad=0p pd=0u as=0p ps=0u
M1039 VDD.t68 a_277_1050.t7 a_3829_1050.t6 pshort w=2u l=0.15u
+  ad=0p pd=0u as=0p ps=0u
M1040 VDD.t87 CLK.t5 a_10507_187.t6 pshort w=2u l=0.15u
+  ad=0p pd=0u as=0p ps=0u
M1041 VDD.t36 RN.t8 a_5779_989.t1 pshort w=2u l=0.15u
+  ad=0p pd=0u as=0p ps=0u
M1042 VDD.t21 a_9331_989.t8 a_9009_1050.t1 pshort w=2u l=0.15u
+  ad=0p pd=0u as=0p ps=0u
M1043 VDD.t4 CLK.t6 a_10637_1050.t6 pshort w=2u l=0.15u
+  ad=0p pd=0u as=0p ps=0u
M1044 a_9331_989.t4 a_5327_187.t8 VDD.t96 pshort w=2u l=0.15u
+  ad=0p pd=0u as=0p ps=0u
M1045 a_14189_1050.t2 RN.t9 VDD.t33 pshort w=2u l=0.15u
+  ad=0p pd=0u as=0p ps=0u
M1046 a_10959_989.t1 D.t2 VDD.t18 pshort w=2u l=0.15u
+  ad=0p pd=0u as=0p ps=0u
M1047 a_599_989.t1 RN.t10 VDD.t34 pshort w=2u l=0.15u
+  ad=0p pd=0u as=0p ps=0u
M1048 a_3829_1050.t3 a_4151_989.t7 VDD.t12 pshort w=2u l=0.15u
+  ad=0p pd=0u as=0p ps=0u
M1049 a_10637_1050.t3 a_10507_187.t10 VDD.t88 pshort w=2u l=0.15u
+  ad=0p pd=0u as=0p ps=0u
M1050 VDD.t9 a_14511_989.t9 a_15757_1051.t4 pshort w=2u l=0.15u
+  ad=0p pd=0u as=0p ps=0u
M1051 a_147_187.t6 CLK.t7 VDD.t90 pshort w=2u l=0.15u
+  ad=0p pd=0u as=0p ps=0u
M1052 GND a_12501_1050.t6 a_13041_103.t0 nshort w=-1.605u l=1.765u
+  ad=0p pd=0u as=0p ps=0u
M1053 GND a_277_1050.t8 a_3643_103.t0 nshort w=-1.605u l=1.765u
+  ad=0p pd=0u as=0p ps=0u
M1054 a_4151_989.t0 a_3829_1050.t7 VDD.t13 pshort w=2u l=0.15u
+  ad=0p pd=0u as=0p ps=0u
M1055 a_9009_1050.t3 a_5457_1050.t11 VDD.t5 pshort w=2u l=0.15u
+  ad=0p pd=0u as=0p ps=0u
M1056 a_15757_1051.t1 a_9331_989.t9 VDD.t16 pshort w=2u l=0.15u
+  ad=0p pd=0u as=0p ps=0u
M1057 VDD.t65 a_14189_1050.t8 a_14511_989.t4 pshort w=2u l=0.15u
+  ad=0p pd=0u as=0p ps=0u
M1058 VDD.t2 a_10959_989.t9 a_12501_1050.t0 pshort w=2u l=0.15u
+  ad=0p pd=0u as=0p ps=0u
M1059 VDD.t7 a_147_187.t11 a_2141_1050.t2 pshort w=2u l=0.15u
+  ad=0p pd=0u as=0p ps=0u
M1060 VDD.t52 a_599_989.t9 a_277_1050.t4 pshort w=2u l=0.15u
+  ad=0p pd=0u as=0p ps=0u
M1061 VDD.t44 RN.t12 a_9009_1050.t5 pshort w=2u l=0.15u
+  ad=0p pd=0u as=0p ps=0u
M1062 VDD.t49 D.t4 a_5779_989.t4 pshort w=2u l=0.15u
+  ad=0p pd=0u as=0p ps=0u
M1063 VDD.t86 a_2141_1050.t5 a_147_187.t5 pshort w=2u l=0.15u
+  ad=0p pd=0u as=0p ps=0u
M1064 VDD.t67 a_5327_187.t11 a_5457_1050.t4 pshort w=2u l=0.15u
+  ad=0p pd=0u as=0p ps=0u
M1065 VDD.t77 a_7321_1050.t6 a_5327_187.t3 pshort w=2u l=0.15u
+  ad=0p pd=0u as=0p ps=0u
M1066 GND a_3829_1050.t8 a_4626_101.t0 nshort w=-1.605u l=1.765u
+  ad=0p pd=0u as=0p ps=0u
M1067 a_14189_1050.t4 a_14511_989.t11 VDD.t74 pshort w=2u l=0.15u
+  ad=0p pd=0u as=0p ps=0u
M1068 a_10959_989.t6 RN.t13 VDD.t30 pshort w=2u l=0.15u
+  ad=0p pd=0u as=0p ps=0u
M1069 GND a_599_989.t10 a_2036_101.t0 nshort w=-1.605u l=1.765u
+  ad=0p pd=0u as=0p ps=0u
M1070 a_147_187.t2 RN.t14 VDD.t37 pshort w=2u l=0.15u
+  ad=0p pd=0u as=0p ps=0u
M1071 GND a_10637_1050.t9 a_14003_103.t0 nshort w=-1.605u l=1.765u
+  ad=0p pd=0u as=0p ps=0u
M1072 GND a_2141_1050.t6 a_2681_103.t0 nshort w=-1.605u l=1.765u
+  ad=0p pd=0u as=0p ps=0u
M1073 a_4151_989.t2 a_147_187.t12 VDD.t93 pshort w=2u l=0.15u
+  ad=0p pd=0u as=0p ps=0u
M1074 a_7321_1050.t0 a_5327_187.t12 VDD.t75 pshort w=2u l=0.15u
+  ad=0p pd=0u as=0p ps=0u
M1075 a_15932_209.t2 a_4151_989.t9 a_16421_1051.t4 pshort w=2u l=0.15u
+  ad=0p pd=0u as=0p ps=0u
M1076 VDD.t0 a_10959_989.t10 a_10637_1050.t2 pshort w=2u l=0.15u
+  ad=0p pd=0u as=0p ps=0u
M1077 a_15757_1051.t7 a_14511_989.t12 VDD.t83 pshort w=2u l=0.15u
+  ad=0p pd=0u as=0p ps=0u
M1078 VDD.t6 a_10507_187.t12 a_14511_989.t2 pshort w=2u l=0.15u
+  ad=0p pd=0u as=0p ps=0u
M1079 VDD.t59 a_10507_187.t13 a_12501_1050.t4 pshort w=2u l=0.15u
+  ad=0p pd=0u as=0p ps=0u
M1080 VDD.t91 a_15932_209.t9 Q.t1 pshort w=2u l=0.15u
+  ad=0p pd=0u as=0p ps=0u
M1081 GND a_9331_989.t10 a_15652_101.t0 nshort w=-1.605u l=1.765u
+  ad=0p pd=0u as=0p ps=0u
M1082 GND a_14189_1050.t9 a_14986_101.t0 nshort w=-1.605u l=1.765u
+  ad=0p pd=0u as=0p ps=0u
M1083 a_277_1050.t1 a_147_187.t13 VDD.t94 pshort w=2u l=0.15u
+  ad=0p pd=0u as=0p ps=0u
M1084 a_16421_1051.t2 a_4151_989.t11 a_15757_1051.t5 pshort w=2u l=0.15u
+  ad=0p pd=0u as=0p ps=0u
M1085 VDD.t50 a_9009_1050.t9 a_9331_989.t0 pshort w=2u l=0.15u
+  ad=0p pd=0u as=0p ps=0u
M1086 a_10507_187.t4 a_12501_1050.t7 VDD.t78 pshort w=2u l=0.15u
+  ad=0p pd=0u as=0p ps=0u
M1087 a_10637_1050.t1 a_10959_989.t11 VDD.t1 pshort w=2u l=0.15u
+  ad=0p pd=0u as=0p ps=0u
M1088 a_10507_187.t2 RN.t15 VDD.t47 pshort w=2u l=0.15u
+  ad=0p pd=0u as=0p ps=0u
M1089 a_7321_1050.t4 a_5779_989.t10 VDD.t24 pshort w=2u l=0.15u
+  ad=0p pd=0u as=0p ps=0u
M1090 VDD.t20 a_277_1050.t9 a_599_989.t6 pshort w=2u l=0.15u
+  ad=0p pd=0u as=0p ps=0u
M1091 a_15932_209.t1 a_14511_989.t13 a_16421_1051.t3 pshort w=2u l=0.15u
+  ad=0p pd=0u as=0p ps=0u
M1092 VDD.t66 a_4151_989.t12 a_3829_1050.t2 pshort w=2u l=0.15u
+  ad=0p pd=0u as=0p ps=0u
M1093 VDD.t40 RN.t17 a_599_989.t0 pshort w=2u l=0.15u
+  ad=0p pd=0u as=0p ps=0u
M1094 GND a_277_1050.t11 a_1053_103.t0 nshort w=-1.605u l=1.765u
+  ad=0p pd=0u as=0p ps=0u
M1095 a_2141_1050.t3 a_599_989.t11 VDD.t81 pshort w=2u l=0.15u
+  ad=0p pd=0u as=0p ps=0u
M1096 VDD.t25 a_5779_989.t11 a_5457_1050.t0 pshort w=2u l=0.15u
+  ad=0p pd=0u as=0p ps=0u
M1097 VDD.t41 RN.t19 a_5327_187.t0 pshort w=2u l=0.15u
+  ad=0p pd=0u as=0p ps=0u
M1098 a_16421_1051.t1 a_9331_989.t11 a_15757_1051.t2 pshort w=2u l=0.15u
+  ad=0p pd=0u as=0p ps=0u
M1099 a_277_1050.t5 CLK.t11 VDD.t55 pshort w=2u l=0.15u
+  ad=0p pd=0u as=0p ps=0u
M1100 a_3829_1050.t5 a_277_1050.t10 VDD.t98 pshort w=2u l=0.15u
+  ad=0p pd=0u as=0p ps=0u
M1101 a_5779_989.t5 a_5457_1050.t12 VDD.t92 pshort w=2u l=0.15u
+  ad=0p pd=0u as=0p ps=0u
M1102 GND a_4151_989.t13 a_16984_101.t0 nshort w=-1.605u l=1.765u
+  ad=0p pd=0u as=0p ps=0u
M1103 a_10637_1050.t5 CLK.t12 VDD.t58 pshort w=2u l=0.15u
+  ad=0p pd=0u as=0p ps=0u
M1104 a_10507_187.t5 CLK.t13 VDD.t56 pshort w=2u l=0.15u
+  ad=0p pd=0u as=0p ps=0u
M1105 VDD.t15 a_10637_1050.t10 a_14189_1050.t0 pshort w=2u l=0.15u
+  ad=0p pd=0u as=0p ps=0u
M1106 VDD.t69 a_10637_1050.t11 a_10959_989.t3 pshort w=2u l=0.15u
+  ad=0p pd=0u as=0p ps=0u
M1107 GND a_10637_1050.t12 a_11413_103.t0 nshort w=-1.605u l=1.765u
+  ad=0p pd=0u as=0p ps=0u
M1108 VDD.t53 D.t5 a_599_989.t3 pshort w=2u l=0.15u
+  ad=0p pd=0u as=0p ps=0u
M1109 VDD.t38 RN.t21 a_3829_1050.t1 pshort w=2u l=0.15u
+  ad=0p pd=0u as=0p ps=0u
M1110 a_599_989.t5 a_277_1050.t12 VDD.t72 pshort w=2u l=0.15u
+  ad=0p pd=0u as=0p ps=0u
M1111 VDD.t27 CLK.t15 a_5327_187.t4 pshort w=2u l=0.15u
+  ad=0p pd=0u as=0p ps=0u
M1112 VDD.t29 CLK.t16 a_5457_1050.t5 pshort w=2u l=0.15u
+  ad=0p pd=0u as=0p ps=0u
M1113 a_2141_1050.t1 a_147_187.t14 VDD.t73 pshort w=2u l=0.15u
+  ad=0p pd=0u as=0p ps=0u
M1114 GND a_10959_989.t7 a_12396_101.t0 nshort w=-1.605u l=1.765u
+  ad=0p pd=0u as=0p ps=0u
M1115 a_277_1050.t3 a_599_989.t12 VDD.t51 pshort w=2u l=0.15u
+  ad=0p pd=0u as=0p ps=0u
M1116 a_3829_1050.t0 RN.t23 VDD.t45 pshort w=2u l=0.15u
+  ad=0p pd=0u as=0p ps=0u
M1117 a_5779_989.t3 D.t6 VDD.t48 pshort w=2u l=0.15u
+  ad=0p pd=0u as=0p ps=0u
M1118 a_9009_1050.t4 RN.t24 VDD.t42 pshort w=2u l=0.15u
+  ad=0p pd=0u as=0p ps=0u
M1119 a_5457_1050.t3 a_5327_187.t14 VDD.t11 pshort w=2u l=0.15u
+  ad=0p pd=0u as=0p ps=0u
M1120 a_5327_187.t6 a_7321_1050.t7 VDD.t97 pshort w=2u l=0.15u
+  ad=0p pd=0u as=0p ps=0u
M1121 VDD.t71 a_5327_187.t15 a_9331_989.t2 pshort w=2u l=0.15u
+  ad=0p pd=0u as=0p ps=0u
M1122 a_147_187.t4 a_2141_1050.t7 VDD.t63 pshort w=2u l=0.15u
+  ad=0p pd=0u as=0p ps=0u
M1123 GND a_10507_187.t7 a_10451_103.t0 nshort w=-1.605u l=1.765u
+  ad=0p pd=0u as=0p ps=0u
M1124 VDD.t46 RN.t25 a_14189_1050.t1 pshort w=2u l=0.15u
+  ad=0p pd=0u as=0p ps=0u
M1125 VDD.t19 D.t7 a_10959_989.t2 pshort w=2u l=0.15u
+  ad=0p pd=0u as=0p ps=0u
M1126 VDD.t28 CLK.t17 a_147_187.t0 pshort w=2u l=0.15u
+  ad=0p pd=0u as=0p ps=0u
M1127 VDD.t84 a_3829_1050.t9 a_4151_989.t4 pshort w=2u l=0.15u
+  ad=0p pd=0u as=0p ps=0u
M1128 VDD.t99 a_5779_989.t12 a_7321_1050.t3 pshort w=2u l=0.15u
+  ad=0p pd=0u as=0p ps=0u
M1129 VDD.t26 a_9331_989.t13 a_15757_1051.t0 pshort w=2u l=0.15u
+  ad=0p pd=0u as=0p ps=0u
M1130 a_14511_989.t1 a_10507_187.t14 VDD.t61 pshort w=2u l=0.15u
+  ad=0p pd=0u as=0p ps=0u
M1131 a_12501_1050.t3 a_10507_187.t15 VDD.t89 pshort w=2u l=0.15u
+  ad=0p pd=0u as=0p ps=0u
C0 CLK VDD 1.71fF
C1 D VDD 0.15fF
C2 RN VDD 0.50fF
C3 Q VDD 0.76fF
C4 CLK D 0.45fF
C5 CLK RN 1.13fF
C6 D RN 12.60fF
R0 a_10959_989.n5 a_10959_989.t9 480.392
R1 a_10959_989.n7 a_10959_989.t11 454.685
R2 a_10959_989.n7 a_10959_989.t10 428.979
R3 a_10959_989.n5 a_10959_989.t8 403.272
R4 a_10959_989.n6 a_10959_989.t7 283.48
R5 a_10959_989.n8 a_10959_989.t12 237.959
R6 a_10959_989.n12 a_10959_989.n10 219.626
R7 a_10959_989.n10 a_10959_989.n4 170.799
R8 a_10959_989.n8 a_10959_989.n7 98.447
R9 a_10959_989.n6 a_10959_989.n5 98.447
R10 a_10959_989.n9 a_10959_989.n8 80.035
R11 a_10959_989.n3 a_10959_989.n2 79.232
R12 a_10959_989.n9 a_10959_989.n6 77.315
R13 a_10959_989.n10 a_10959_989.n9 76
R14 a_10959_989.n4 a_10959_989.n3 63.152
R15 a_10959_989.n4 a_10959_989.n0 16.08
R16 a_10959_989.n3 a_10959_989.n1 16.08
R17 a_10959_989.n12 a_10959_989.n11 15.218
R18 a_10959_989.n0 a_10959_989.t0 14.282
R19 a_10959_989.n0 a_10959_989.t6 14.282
R20 a_10959_989.n1 a_10959_989.t2 14.282
R21 a_10959_989.n1 a_10959_989.t1 14.282
R22 a_10959_989.n2 a_10959_989.t3 14.282
R23 a_10959_989.n2 a_10959_989.t4 14.282
R24 a_10959_989.n13 a_10959_989.n12 12.014
R25 a_12396_101.n10 a_12396_101.n9 93.333
R26 a_12396_101.n2 a_12396_101.n1 41.622
R27 a_12396_101.n13 a_12396_101.n12 26.667
R28 a_12396_101.n6 a_12396_101.n5 24.977
R29 a_12396_101.t0 a_12396_101.n2 21.209
R30 a_12396_101.t0 a_12396_101.n3 11.595
R31 a_12396_101.t1 a_12396_101.n8 8.137
R32 a_12396_101.t0 a_12396_101.n0 6.109
R33 a_12396_101.t1 a_12396_101.n7 4.864
R34 a_12396_101.t0 a_12396_101.n4 3.871
R35 a_12396_101.t0 a_12396_101.n13 2.535
R36 a_12396_101.n13 a_12396_101.t1 1.145
R37 a_12396_101.n7 a_12396_101.n6 1.13
R38 a_12396_101.t1 a_12396_101.n11 0.804
R39 a_12396_101.n11 a_12396_101.n10 0.136
R40 GND.n30 GND.n29 219.745
R41 GND.n60 GND.n58 219.745
R42 GND.n90 GND.n88 219.745
R43 GND.n451 GND.n450 219.745
R44 GND.n493 GND.n491 219.745
R45 GND.n526 GND.n524 219.745
R46 GND.n568 GND.n566 219.745
R47 GND.n610 GND.n608 219.745
R48 GND.n640 GND.n638 219.745
R49 GND.n682 GND.n680 219.745
R50 GND.n724 GND.n722 219.745
R51 GND.n754 GND.n752 219.745
R52 GND.n796 GND.n794 219.745
R53 GND.n381 GND.n379 219.745
R54 GND.n351 GND.n349 219.745
R55 GND.n309 GND.n307 219.745
R56 GND.n264 GND.n262 219.745
R57 GND.n234 GND.n232 219.745
R58 GND.n192 GND.n190 219.745
R59 GND.n150 GND.n148 219.745
R60 GND.n120 GND.n119 219.745
R61 GND.n181 GND.n180 85.559
R62 GND.n223 GND.n222 85.559
R63 GND.n340 GND.n339 85.559
R64 GND.n805 GND.n804 85.559
R65 GND.n763 GND.n762 85.559
R66 GND.n691 GND.n690 85.559
R67 GND.n649 GND.n648 85.559
R68 GND.n577 GND.n576 85.559
R69 GND.n535 GND.n534 85.559
R70 GND.n460 GND.n459 85.559
R71 GND.n418 GND.n417 85.559
R72 GND.n30 GND.n28 85.529
R73 GND.n60 GND.n59 85.529
R74 GND.n90 GND.n89 85.529
R75 GND.n451 GND.n449 85.529
R76 GND.n493 GND.n492 85.529
R77 GND.n526 GND.n525 85.529
R78 GND.n568 GND.n567 85.529
R79 GND.n610 GND.n609 85.529
R80 GND.n640 GND.n639 85.529
R81 GND.n682 GND.n681 85.529
R82 GND.n724 GND.n723 85.529
R83 GND.n754 GND.n753 85.529
R84 GND.n796 GND.n795 85.529
R85 GND.n381 GND.n380 85.529
R86 GND.n351 GND.n350 85.529
R87 GND.n309 GND.n308 85.529
R88 GND.n264 GND.n263 85.529
R89 GND.n234 GND.n233 85.529
R90 GND.n192 GND.n191 85.529
R91 GND.n150 GND.n149 85.529
R92 GND.n120 GND.n118 85.529
R93 GND.n78 GND.n77 84.842
R94 GND.n108 GND.n107 84.842
R95 GND.n138 GND.n137 84.842
R96 GND.n252 GND.n251 84.842
R97 GND.n369 GND.n368 84.842
R98 GND.n732 GND.n731 84.842
R99 GND.n618 GND.n617 84.842
R100 GND.n48 GND.n47 84.842
R101 GND.n9 GND.n1 76.145
R102 GND.n412 GND.n411 76
R103 GND.n73 GND.n72 76
R104 GND.n76 GND.n75 76
R105 GND.n81 GND.n80 76
R106 GND.n84 GND.n83 76
R107 GND.n87 GND.n86 76
R108 GND.n94 GND.n93 76
R109 GND.n97 GND.n96 76
R110 GND.n100 GND.n99 76
R111 GND.n103 GND.n102 76
R112 GND.n106 GND.n105 76
R113 GND.n111 GND.n110 76
R114 GND.n114 GND.n113 76
R115 GND.n117 GND.n116 76
R116 GND.n124 GND.n123 76
R117 GND.n127 GND.n126 76
R118 GND.n130 GND.n129 76
R119 GND.n133 GND.n132 76
R120 GND.n136 GND.n135 76
R121 GND.n141 GND.n140 76
R122 GND.n144 GND.n143 76
R123 GND.n147 GND.n146 76
R124 GND.n154 GND.n153 76
R125 GND.n157 GND.n156 76
R126 GND.n160 GND.n159 76
R127 GND.n163 GND.n162 76
R128 GND.n166 GND.n165 76
R129 GND.n169 GND.n168 76
R130 GND.n172 GND.n171 76
R131 GND.n175 GND.n174 76
R132 GND.n178 GND.n177 76
R133 GND.n183 GND.n182 76
R134 GND.n186 GND.n185 76
R135 GND.n189 GND.n188 76
R136 GND.n196 GND.n195 76
R137 GND.n199 GND.n198 76
R138 GND.n202 GND.n201 76
R139 GND.n205 GND.n204 76
R140 GND.n208 GND.n207 76
R141 GND.n211 GND.n210 76
R142 GND.n214 GND.n213 76
R143 GND.n217 GND.n216 76
R144 GND.n220 GND.n219 76
R145 GND.n225 GND.n224 76
R146 GND.n228 GND.n227 76
R147 GND.n231 GND.n230 76
R148 GND.n238 GND.n237 76
R149 GND.n241 GND.n240 76
R150 GND.n244 GND.n243 76
R151 GND.n247 GND.n246 76
R152 GND.n250 GND.n249 76
R153 GND.n255 GND.n254 76
R154 GND.n258 GND.n257 76
R155 GND.n261 GND.n260 76
R156 GND.n268 GND.n267 76
R157 GND.n271 GND.n270 76
R158 GND.n274 GND.n273 76
R159 GND.n277 GND.n276 76
R160 GND.n280 GND.n279 76
R161 GND.n283 GND.n282 76
R162 GND.n286 GND.n285 76
R163 GND.n289 GND.n288 76
R164 GND.n292 GND.n291 76
R165 GND.n300 GND.n299 76
R166 GND.n303 GND.n302 76
R167 GND.n306 GND.n305 76
R168 GND.n313 GND.n312 76
R169 GND.n316 GND.n315 76
R170 GND.n319 GND.n318 76
R171 GND.n322 GND.n321 76
R172 GND.n325 GND.n324 76
R173 GND.n328 GND.n327 76
R174 GND.n331 GND.n330 76
R175 GND.n334 GND.n333 76
R176 GND.n337 GND.n336 76
R177 GND.n342 GND.n341 76
R178 GND.n345 GND.n344 76
R179 GND.n348 GND.n347 76
R180 GND.n355 GND.n354 76
R181 GND.n358 GND.n357 76
R182 GND.n361 GND.n360 76
R183 GND.n364 GND.n363 76
R184 GND.n367 GND.n366 76
R185 GND.n372 GND.n371 76
R186 GND.n375 GND.n374 76
R187 GND.n378 GND.n377 76
R188 GND.n385 GND.n384 76
R189 GND.n388 GND.n387 76
R190 GND.n391 GND.n390 76
R191 GND.n394 GND.n393 76
R192 GND.n397 GND.n396 76
R193 GND.n400 GND.n399 76
R194 GND.n403 GND.n402 76
R195 GND.n406 GND.n405 76
R196 GND.n409 GND.n408 76
R197 GND.n807 GND.n806 76
R198 GND.n802 GND.n801 76
R199 GND.n799 GND.n798 76
R200 GND.n792 GND.n791 76
R201 GND.n789 GND.n788 76
R202 GND.n786 GND.n785 76
R203 GND.n783 GND.n782 76
R204 GND.n780 GND.n779 76
R205 GND.n777 GND.n776 76
R206 GND.n774 GND.n773 76
R207 GND.n771 GND.n770 76
R208 GND.n768 GND.n767 76
R209 GND.n765 GND.n764 76
R210 GND.n760 GND.n759 76
R211 GND.n757 GND.n756 76
R212 GND.n750 GND.n749 76
R213 GND.n747 GND.n746 76
R214 GND.n744 GND.n743 76
R215 GND.n741 GND.n740 76
R216 GND.n738 GND.n737 76
R217 GND.n735 GND.n734 76
R218 GND.n730 GND.n729 76
R219 GND.n727 GND.n726 76
R220 GND.n720 GND.n719 76
R221 GND.n717 GND.n716 76
R222 GND.n714 GND.n713 76
R223 GND.n711 GND.n710 76
R224 GND.n708 GND.n707 76
R225 GND.n705 GND.n704 76
R226 GND.n702 GND.n701 76
R227 GND.n699 GND.n698 76
R228 GND.n696 GND.n695 76
R229 GND.n693 GND.n692 76
R230 GND.n688 GND.n687 76
R231 GND.n685 GND.n684 76
R232 GND.n678 GND.n677 76
R233 GND.n675 GND.n674 76
R234 GND.n672 GND.n671 76
R235 GND.n669 GND.n668 76
R236 GND.n666 GND.n665 76
R237 GND.n663 GND.n662 76
R238 GND.n660 GND.n659 76
R239 GND.n657 GND.n656 76
R240 GND.n654 GND.n653 76
R241 GND.n651 GND.n650 76
R242 GND.n646 GND.n645 76
R243 GND.n643 GND.n642 76
R244 GND.n636 GND.n635 76
R245 GND.n633 GND.n632 76
R246 GND.n630 GND.n629 76
R247 GND.n627 GND.n626 76
R248 GND.n624 GND.n623 76
R249 GND.n621 GND.n620 76
R250 GND.n616 GND.n615 76
R251 GND.n613 GND.n612 76
R252 GND.n606 GND.n605 76
R253 GND.n603 GND.n602 76
R254 GND.n600 GND.n599 76
R255 GND.n597 GND.n596 76
R256 GND.n594 GND.n593 76
R257 GND.n591 GND.n590 76
R258 GND.n588 GND.n587 76
R259 GND.n585 GND.n584 76
R260 GND.n582 GND.n581 76
R261 GND.n579 GND.n578 76
R262 GND.n574 GND.n573 76
R263 GND.n571 GND.n570 76
R264 GND.n564 GND.n563 76
R265 GND.n561 GND.n560 76
R266 GND.n558 GND.n557 76
R267 GND.n555 GND.n554 76
R268 GND.n552 GND.n551 76
R269 GND.n549 GND.n548 76
R270 GND.n546 GND.n545 76
R271 GND.n543 GND.n542 76
R272 GND.n540 GND.n539 76
R273 GND.n537 GND.n536 76
R274 GND.n532 GND.n531 76
R275 GND.n529 GND.n528 76
R276 GND.n522 GND.n521 76
R277 GND.n519 GND.n518 76
R278 GND.n516 GND.n515 76
R279 GND.n513 GND.n512 76
R280 GND.n510 GND.n509 76
R281 GND.n507 GND.n506 76
R282 GND.n499 GND.n498 76
R283 GND.n496 GND.n495 76
R284 GND.n489 GND.n488 76
R285 GND.n486 GND.n485 76
R286 GND.n483 GND.n482 76
R287 GND.n480 GND.n479 76
R288 GND.n477 GND.n476 76
R289 GND.n474 GND.n473 76
R290 GND.n471 GND.n470 76
R291 GND.n468 GND.n467 76
R292 GND.n465 GND.n464 76
R293 GND.n462 GND.n461 76
R294 GND.n457 GND.n456 76
R295 GND.n454 GND.n453 76
R296 GND.n447 GND.n446 76
R297 GND.n444 GND.n443 76
R298 GND.n441 GND.n440 76
R299 GND.n438 GND.n437 76
R300 GND.n435 GND.n434 76
R301 GND.n432 GND.n431 76
R302 GND.n429 GND.n428 76
R303 GND.n426 GND.n425 76
R304 GND.n423 GND.n422 76
R305 GND.n420 GND.n419 76
R306 GND.n415 GND.n414 76
R307 GND.n9 GND.n8 76
R308 GND.n17 GND.n16 76
R309 GND.n24 GND.n23 76
R310 GND.n27 GND.n26 76
R311 GND.n34 GND.n33 76
R312 GND.n37 GND.n36 76
R313 GND.n40 GND.n39 76
R314 GND.n43 GND.n42 76
R315 GND.n46 GND.n45 76
R316 GND.n51 GND.n50 76
R317 GND.n54 GND.n53 76
R318 GND.n57 GND.n56 76
R319 GND.n64 GND.n63 76
R320 GND.n67 GND.n66 76
R321 GND.n70 GND.n69 76
R322 GND.n298 GND.n297 64.552
R323 GND.n504 GND.n503 63.835
R324 GND.n5 GND.n4 35.01
R325 GND.n3 GND.n2 29.127
R326 GND.n297 GND.n296 28.421
R327 GND.n503 GND.n502 28.421
R328 GND.n297 GND.n295 25.263
R329 GND.n503 GND.n501 25.263
R330 GND.n295 GND.n294 24.383
R331 GND.n501 GND.n500 24.383
R332 GND.n12 GND.t13 20.794
R333 GND.n6 GND.n5 19.735
R334 GND.n14 GND.n13 19.735
R335 GND.n21 GND.n20 19.735
R336 GND.n5 GND.n3 19.017
R337 GND.n33 GND.n31 14.167
R338 GND.n63 GND.n61 14.167
R339 GND.n93 GND.n91 14.167
R340 GND.n123 GND.n121 14.167
R341 GND.n153 GND.n151 14.167
R342 GND.n195 GND.n193 14.167
R343 GND.n237 GND.n235 14.167
R344 GND.n267 GND.n265 14.167
R345 GND.n312 GND.n310 14.167
R346 GND.n354 GND.n352 14.167
R347 GND.n384 GND.n382 14.167
R348 GND.n798 GND.n797 14.167
R349 GND.n756 GND.n755 14.167
R350 GND.n726 GND.n725 14.167
R351 GND.n684 GND.n683 14.167
R352 GND.n642 GND.n641 14.167
R353 GND.n612 GND.n611 14.167
R354 GND.n570 GND.n569 14.167
R355 GND.n528 GND.n527 14.167
R356 GND.n495 GND.n494 14.167
R357 GND.n453 GND.n452 14.167
R358 GND.n414 GND.n413 13.653
R359 GND.n419 GND.n416 13.653
R360 GND.n422 GND.n421 13.653
R361 GND.n425 GND.n424 13.653
R362 GND.n428 GND.n427 13.653
R363 GND.n431 GND.n430 13.653
R364 GND.n434 GND.n433 13.653
R365 GND.n437 GND.n436 13.653
R366 GND.n440 GND.n439 13.653
R367 GND.n443 GND.n442 13.653
R368 GND.n446 GND.n445 13.653
R369 GND.n453 GND.n448 13.653
R370 GND.n456 GND.n455 13.653
R371 GND.n461 GND.n458 13.653
R372 GND.n464 GND.n463 13.653
R373 GND.n467 GND.n466 13.653
R374 GND.n470 GND.n469 13.653
R375 GND.n473 GND.n472 13.653
R376 GND.n476 GND.n475 13.653
R377 GND.n479 GND.n478 13.653
R378 GND.n482 GND.n481 13.653
R379 GND.n485 GND.n484 13.653
R380 GND.n488 GND.n487 13.653
R381 GND.n495 GND.n490 13.653
R382 GND.n498 GND.n497 13.653
R383 GND.n506 GND.n505 13.653
R384 GND.n509 GND.n508 13.653
R385 GND.n512 GND.n511 13.653
R386 GND.n515 GND.n514 13.653
R387 GND.n518 GND.n517 13.653
R388 GND.n521 GND.n520 13.653
R389 GND.n528 GND.n523 13.653
R390 GND.n531 GND.n530 13.653
R391 GND.n536 GND.n533 13.653
R392 GND.n539 GND.n538 13.653
R393 GND.n542 GND.n541 13.653
R394 GND.n545 GND.n544 13.653
R395 GND.n548 GND.n547 13.653
R396 GND.n551 GND.n550 13.653
R397 GND.n554 GND.n553 13.653
R398 GND.n557 GND.n556 13.653
R399 GND.n560 GND.n559 13.653
R400 GND.n563 GND.n562 13.653
R401 GND.n570 GND.n565 13.653
R402 GND.n573 GND.n572 13.653
R403 GND.n578 GND.n575 13.653
R404 GND.n581 GND.n580 13.653
R405 GND.n584 GND.n583 13.653
R406 GND.n587 GND.n586 13.653
R407 GND.n590 GND.n589 13.653
R408 GND.n593 GND.n592 13.653
R409 GND.n596 GND.n595 13.653
R410 GND.n599 GND.n598 13.653
R411 GND.n602 GND.n601 13.653
R412 GND.n605 GND.n604 13.653
R413 GND.n612 GND.n607 13.653
R414 GND.n615 GND.n614 13.653
R415 GND.n620 GND.n619 13.653
R416 GND.n623 GND.n622 13.653
R417 GND.n626 GND.n625 13.653
R418 GND.n629 GND.n628 13.653
R419 GND.n632 GND.n631 13.653
R420 GND.n635 GND.n634 13.653
R421 GND.n642 GND.n637 13.653
R422 GND.n645 GND.n644 13.653
R423 GND.n650 GND.n647 13.653
R424 GND.n653 GND.n652 13.653
R425 GND.n656 GND.n655 13.653
R426 GND.n659 GND.n658 13.653
R427 GND.n662 GND.n661 13.653
R428 GND.n665 GND.n664 13.653
R429 GND.n668 GND.n667 13.653
R430 GND.n671 GND.n670 13.653
R431 GND.n674 GND.n673 13.653
R432 GND.n677 GND.n676 13.653
R433 GND.n684 GND.n679 13.653
R434 GND.n687 GND.n686 13.653
R435 GND.n692 GND.n689 13.653
R436 GND.n695 GND.n694 13.653
R437 GND.n698 GND.n697 13.653
R438 GND.n701 GND.n700 13.653
R439 GND.n704 GND.n703 13.653
R440 GND.n707 GND.n706 13.653
R441 GND.n710 GND.n709 13.653
R442 GND.n713 GND.n712 13.653
R443 GND.n716 GND.n715 13.653
R444 GND.n719 GND.n718 13.653
R445 GND.n726 GND.n721 13.653
R446 GND.n729 GND.n728 13.653
R447 GND.n734 GND.n733 13.653
R448 GND.n737 GND.n736 13.653
R449 GND.n740 GND.n739 13.653
R450 GND.n743 GND.n742 13.653
R451 GND.n746 GND.n745 13.653
R452 GND.n749 GND.n748 13.653
R453 GND.n756 GND.n751 13.653
R454 GND.n759 GND.n758 13.653
R455 GND.n764 GND.n761 13.653
R456 GND.n767 GND.n766 13.653
R457 GND.n770 GND.n769 13.653
R458 GND.n773 GND.n772 13.653
R459 GND.n776 GND.n775 13.653
R460 GND.n779 GND.n778 13.653
R461 GND.n782 GND.n781 13.653
R462 GND.n785 GND.n784 13.653
R463 GND.n788 GND.n787 13.653
R464 GND.n791 GND.n790 13.653
R465 GND.n798 GND.n793 13.653
R466 GND.n801 GND.n800 13.653
R467 GND.n806 GND.n803 13.653
R468 GND.n408 GND.n407 13.653
R469 GND.n405 GND.n404 13.653
R470 GND.n402 GND.n401 13.653
R471 GND.n399 GND.n398 13.653
R472 GND.n396 GND.n395 13.653
R473 GND.n393 GND.n392 13.653
R474 GND.n390 GND.n389 13.653
R475 GND.n387 GND.n386 13.653
R476 GND.n384 GND.n383 13.653
R477 GND.n377 GND.n376 13.653
R478 GND.n374 GND.n373 13.653
R479 GND.n371 GND.n370 13.653
R480 GND.n366 GND.n365 13.653
R481 GND.n363 GND.n362 13.653
R482 GND.n360 GND.n359 13.653
R483 GND.n357 GND.n356 13.653
R484 GND.n354 GND.n353 13.653
R485 GND.n347 GND.n346 13.653
R486 GND.n344 GND.n343 13.653
R487 GND.n341 GND.n338 13.653
R488 GND.n336 GND.n335 13.653
R489 GND.n333 GND.n332 13.653
R490 GND.n330 GND.n329 13.653
R491 GND.n327 GND.n326 13.653
R492 GND.n324 GND.n323 13.653
R493 GND.n321 GND.n320 13.653
R494 GND.n318 GND.n317 13.653
R495 GND.n315 GND.n314 13.653
R496 GND.n312 GND.n311 13.653
R497 GND.n305 GND.n304 13.653
R498 GND.n302 GND.n301 13.653
R499 GND.n299 GND.n293 13.653
R500 GND.n291 GND.n290 13.653
R501 GND.n288 GND.n287 13.653
R502 GND.n285 GND.n284 13.653
R503 GND.n282 GND.n281 13.653
R504 GND.n279 GND.n278 13.653
R505 GND.n276 GND.n275 13.653
R506 GND.n273 GND.n272 13.653
R507 GND.n270 GND.n269 13.653
R508 GND.n267 GND.n266 13.653
R509 GND.n260 GND.n259 13.653
R510 GND.n257 GND.n256 13.653
R511 GND.n254 GND.n253 13.653
R512 GND.n249 GND.n248 13.653
R513 GND.n246 GND.n245 13.653
R514 GND.n243 GND.n242 13.653
R515 GND.n240 GND.n239 13.653
R516 GND.n237 GND.n236 13.653
R517 GND.n230 GND.n229 13.653
R518 GND.n227 GND.n226 13.653
R519 GND.n224 GND.n221 13.653
R520 GND.n219 GND.n218 13.653
R521 GND.n216 GND.n215 13.653
R522 GND.n213 GND.n212 13.653
R523 GND.n210 GND.n209 13.653
R524 GND.n207 GND.n206 13.653
R525 GND.n204 GND.n203 13.653
R526 GND.n201 GND.n200 13.653
R527 GND.n198 GND.n197 13.653
R528 GND.n195 GND.n194 13.653
R529 GND.n188 GND.n187 13.653
R530 GND.n185 GND.n184 13.653
R531 GND.n182 GND.n179 13.653
R532 GND.n177 GND.n176 13.653
R533 GND.n174 GND.n173 13.653
R534 GND.n171 GND.n170 13.653
R535 GND.n168 GND.n167 13.653
R536 GND.n165 GND.n164 13.653
R537 GND.n162 GND.n161 13.653
R538 GND.n159 GND.n158 13.653
R539 GND.n156 GND.n155 13.653
R540 GND.n153 GND.n152 13.653
R541 GND.n146 GND.n145 13.653
R542 GND.n143 GND.n142 13.653
R543 GND.n140 GND.n139 13.653
R544 GND.n135 GND.n134 13.653
R545 GND.n132 GND.n131 13.653
R546 GND.n129 GND.n128 13.653
R547 GND.n126 GND.n125 13.653
R548 GND.n123 GND.n122 13.653
R549 GND.n116 GND.n115 13.653
R550 GND.n113 GND.n112 13.653
R551 GND.n110 GND.n109 13.653
R552 GND.n105 GND.n104 13.653
R553 GND.n102 GND.n101 13.653
R554 GND.n99 GND.n98 13.653
R555 GND.n96 GND.n95 13.653
R556 GND.n93 GND.n92 13.653
R557 GND.n86 GND.n85 13.653
R558 GND.n83 GND.n82 13.653
R559 GND.n80 GND.n79 13.653
R560 GND.n75 GND.n74 13.653
R561 GND.n72 GND.n71 13.653
R562 GND.n8 GND.n7 13.653
R563 GND.n16 GND.n15 13.653
R564 GND.n23 GND.n22 13.653
R565 GND.n26 GND.n25 13.653
R566 GND.n33 GND.n32 13.653
R567 GND.n36 GND.n35 13.653
R568 GND.n39 GND.n38 13.653
R569 GND.n42 GND.n41 13.653
R570 GND.n45 GND.n44 13.653
R571 GND.n50 GND.n49 13.653
R572 GND.n53 GND.n52 13.653
R573 GND.n56 GND.n55 13.653
R574 GND.n63 GND.n62 13.653
R575 GND.n66 GND.n65 13.653
R576 GND.n69 GND.n68 13.653
R577 GND.n20 GND.n19 12.837
R578 GND.n19 GND.n18 7.566
R579 GND.n31 GND.n30 7.312
R580 GND.n61 GND.n60 7.312
R581 GND.n91 GND.n90 7.312
R582 GND.n452 GND.n451 7.312
R583 GND.n494 GND.n493 7.312
R584 GND.n527 GND.n526 7.312
R585 GND.n569 GND.n568 7.312
R586 GND.n611 GND.n610 7.312
R587 GND.n641 GND.n640 7.312
R588 GND.n683 GND.n682 7.312
R589 GND.n725 GND.n724 7.312
R590 GND.n755 GND.n754 7.312
R591 GND.n797 GND.n796 7.312
R592 GND.n382 GND.n381 7.312
R593 GND.n352 GND.n351 7.312
R594 GND.n310 GND.n309 7.312
R595 GND.n265 GND.n264 7.312
R596 GND.n235 GND.n234 7.312
R597 GND.n193 GND.n192 7.312
R598 GND.n151 GND.n150 7.312
R599 GND.n121 GND.n120 7.312
R600 GND.n11 GND.n10 4.551
R601 GND.n8 GND.n6 3.935
R602 GND.n50 GND.n48 3.935
R603 GND.n80 GND.n78 3.935
R604 GND.n110 GND.n108 3.935
R605 GND.n140 GND.n138 3.935
R606 GND.n254 GND.n252 3.935
R607 GND.n371 GND.n369 3.935
R608 GND.n734 GND.n732 3.935
R609 GND.n620 GND.n618 3.935
R610 GND.n506 GND.n504 3.935
R611 GND.n23 GND.n21 3.541
R612 GND.t13 GND.n11 2.238
R613 GND.n411 GND.n410 0.596
R614 GND.n1 GND.n0 0.596
R615 GND.n13 GND.n12 0.358
R616 GND.n34 GND.n27 0.29
R617 GND.n64 GND.n57 0.29
R618 GND.n94 GND.n87 0.29
R619 GND.n124 GND.n117 0.29
R620 GND.n154 GND.n147 0.29
R621 GND.n196 GND.n189 0.29
R622 GND.n238 GND.n231 0.29
R623 GND.n268 GND.n261 0.29