* SPICE3 file created from TMRDFFQX1.ext - technology: sky130A

.subckt TMRDFFQX1 D CLK Q VDD GND
M1000 GND a_7469_1050.t5 a_8030_101.t0 nshort w=-1.605u l=1.765u
+  ad=4.9019p pd=41.07u as=0p ps=0u
M1001 a_599_989.t1 D.t0 VDD.t8 pshort w=2u l=0.15u
+  ad=0p pd=0u as=0p ps=0u
M1002 VDD.t43 a_10429_1050.t5 a_8731_187.t4 pshort w=2u l=0.15u
+  ad=0p pd=0u as=0p ps=0u
M1003 a_13268_209.t5 a_7595_411.t5 a_13757_1051.t5 pshort w=2u l=0.15u
+  ad=0p pd=0u as=0p ps=0u
M1004 a_10429_1050.t0 a_8731_187.t5 VDD.t0 pshort w=2u l=0.15u
+  ad=0p pd=0u as=0p ps=0u
M1005 VDD.t53 a_13268_209.t7 Q.t1 pshort w=2u l=0.15u
+  ad=0p pd=0u as=0p ps=0u
M1006 a_7469_1050.t1 a_7595_411.t7 VDD.t45 pshort w=2u l=0.15u
+  ad=0p pd=0u as=0p ps=0u
M1007 VDD.t51 a_9183_989.t5 a_8861_1050.t2 pshort w=2u l=0.15u
+  ad=0p pd=0u as=0p ps=0u
M1008 GND a_1845_1050.t5 a_2406_101.t0 nshort w=-1.605u l=1.765u
+  ad=0p pd=0u as=0p ps=0u
M1009 a_4569_1050.t1 CLK.t0 VDD.t18 pshort w=2u l=0.15u
+  ad=0p pd=0u as=0p ps=0u
M1010 VDD.t2 a_4439_187.t5 a_6137_1050.t3 pshort w=2u l=0.15u
+  ad=0p pd=0u as=0p ps=0u
M1011 a_1845_1050.t4 a_599_989.t5 VDD.t24 pshort w=2u l=0.15u
+  ad=0p pd=0u as=0p ps=0u
M1012 VDD.t29 a_8861_1050.t7 a_9183_989.t3 pshort w=2u l=0.15u
+  ad=0p pd=0u as=0p ps=0u
M1013 a_8861_1050.t6 CLK.t1 VDD.t50 pshort w=2u l=0.15u
+  ad=0p pd=0u as=0p ps=0u
M1014 GND a_8861_1050.t8 a_9658_101.t0 nshort w=-1.605u l=1.765u
+  ad=0p pd=0u as=0p ps=0u
M1015 a_13093_1051.t1 a_11887_411.t5 VDD.t42 pshort w=2u l=0.15u
+  ad=0p pd=0u as=0p ps=0u
M1016 VDD.t38 a_147_187.t6 a_1845_1050.t1 pshort w=2u l=0.15u
+  ad=0p pd=0u as=0p ps=0u
M1017 a_6137_1050.t1 a_4891_989.t5 VDD.t27 pshort w=2u l=0.15u
+  ad=0p pd=0u as=0p ps=0u
M1018 VDD.t32 a_4569_1050.t7 a_4891_989.t4 pshort w=2u l=0.15u
+  ad=0p pd=0u as=0p ps=0u
M1019 a_13093_1051.t3 a_11887_411.t6 a_13757_1051.t6 pshort w=2u l=0.15u
+  ad=0p pd=0u as=0p ps=0u
M1020 VDD.t21 a_4439_187.t6 a_7595_411.t1 pshort w=2u l=0.15u
+  ad=0p pd=0u as=0p ps=0u
M1021 VDD.t56 a_147_187.t7 a_277_1050.t3 pshort w=2u l=0.15u
+  ad=0p pd=0u as=0p ps=0u
M1022 VDD.t15 a_6137_1050.t5 a_4439_187.t4 pshort w=2u l=0.15u
+  ad=0p pd=0u as=0p ps=0u
M1023 VDD.t69 a_8731_187.t8 a_8861_1050.t5 pshort w=2u l=0.15u
+  ad=0p pd=0u as=0p ps=0u
M1024 GND a_147_187.t8 a_91_103.t0 nshort w=-1.605u l=1.765u
+  ad=0p pd=0u as=0p ps=0u
M1025 a_3177_1050.t4 a_277_1050.t7 VDD.t77 pshort w=2u l=0.15u
+  ad=0p pd=0u as=0p ps=0u
M1026 VDD.t66 a_1845_1050.t6 a_147_187.t4 pshort w=2u l=0.15u
+  ad=0p pd=0u as=0p ps=0u
M1027 a_11887_411.t4 a_11761_1050.t5 VDD.t73 pshort w=2u l=0.15u
+  ad=0p pd=0u as=0p ps=0u
M1028 VDD.t7 D.t2 a_9183_989.t1 pshort w=2u l=0.15u
+  ad=0p pd=0u as=0p ps=0u
M1029 GND a_8861_1050.t9 a_11656_101.t0 nshort w=-1.605u l=1.765u
+  ad=0p pd=0u as=0p ps=0u
M1030 VDD.t4 D.t3 a_4891_989.t2 pshort w=2u l=0.15u
+  ad=0p pd=0u as=0p ps=0u
M1031 GND a_10429_1050.t6 a_10990_101.t0 nshort w=-1.605u l=1.765u
+  ad=0p pd=0u as=0p ps=0u
M1032 GND a_4439_187.t8 a_4383_103.t0 nshort w=-1.605u l=1.765u
+  ad=0p pd=0u as=0p ps=0u
M1033 VDD.t39 a_7469_1050.t6 a_7595_411.t2 pshort w=2u l=0.15u
+  ad=0p pd=0u as=0p ps=0u
M1034 VDD.t60 CLK.t2 a_277_1050.t1 pshort w=2u l=0.15u
+  ad=0p pd=0u as=0p ps=0u
M1035 a_13757_1051.t4 a_7595_411.t8 a_13268_209.t4 pshort w=2u l=0.15u
+  ad=0p pd=0u as=0p ps=0u
M1036 a_3177_1050.t1 a_3303_411.t7 VDD.t81 pshort w=2u l=0.15u
+  ad=0p pd=0u as=0p ps=0u
M1037 VDD.t47 CLK.t5 a_147_187.t2 pshort w=2u l=0.15u
+  ad=0p pd=0u as=0p ps=0u
M1038 a_11887_411.t2 a_8731_187.t10 VDD.t68 pshort w=2u l=0.15u
+  ad=0p pd=0u as=0p ps=0u
M1039 GND a_599_989.t8 a_1740_101.t0 nshort w=-1.605u l=1.765u
+  ad=0p pd=0u as=0p ps=0u
M1040 VDD.t41 a_11887_411.t7 a_11761_1050.t2 pshort w=2u l=0.15u
+  ad=0p pd=0u as=0p ps=0u
M1041 GND a_4569_1050.t9 a_5366_101.t0 nshort w=-1.605u l=1.765u
+  ad=0p pd=0u as=0p ps=0u
M1042 Q a_13268_209.t9 GND.t1 nshort w=-1.605u l=1.765u
+  ad=0.1791p pd=1.57u as=0p ps=0u
M1043 VDD.t17 CLK.t6 a_4439_187.t2 pshort w=2u l=0.15u
+  ad=0p pd=0u as=0p ps=0u
M1044 GND a_11887_411.t8 a_13654_101.t0 nshort w=-1.605u l=1.765u
+  ad=0p pd=0u as=0p ps=0u
M1045 a_9183_989.t0 D.t4 VDD.t6 pshort w=2u l=0.15u
+  ad=0p pd=0u as=0p ps=0u
M1046 a_3303_411.t4 a_3177_1050.t5 VDD.t79 pshort w=2u l=0.15u
+  ad=0p pd=0u as=0p ps=0u
M1047 GND a_11887_411.t10 a_12988_101.t0 nshort w=-1.605u l=1.765u
+  ad=0p pd=0u as=0p ps=0u
M1048 VDD.t49 a_599_989.t7 a_277_1050.t5 pshort w=2u l=0.15u
+  ad=0p pd=0u as=0p ps=0u
M1049 VDD.t11 a_277_1050.t8 a_599_989.t3 pshort w=2u l=0.15u
+  ad=0p pd=0u as=0p ps=0u
M1050 a_8731_187.t3 a_10429_1050.t7 VDD.t57 pshort w=2u l=0.15u
+  ad=0p pd=0u as=0p ps=0u
M1051 a_4569_1050.t6 a_4891_989.t7 VDD.t74 pshort w=2u l=0.15u
+  ad=0p pd=0u as=0p ps=0u
M1052 a_13757_1051.t2 a_3303_411.t8 a_13268_209.t1 pshort w=2u l=0.15u
+  ad=0p pd=0u as=0p ps=0u
M1053 VDD.t61 a_9183_989.t6 a_10429_1050.t2 pshort w=2u l=0.15u
+  ad=0p pd=0u as=0p ps=0u
M1054 VDD.t37 a_147_187.t9 a_3303_411.t2 pshort w=2u l=0.15u
+  ad=0p pd=0u as=0p ps=0u
M1055 a_7595_411.t4 a_7469_1050.t7 VDD.t54 pshort w=2u l=0.15u
+  ad=0p pd=0u as=0p ps=0u
M1056 Q.t0 a_13268_209.t8 VDD.t12 pshort w=2u l=0.15u
+  ad=0p pd=0u as=0p ps=0u
M1057 VDD.t36 a_4569_1050.t8 a_7469_1050.t4 pshort w=2u l=0.15u
+  ad=0p pd=0u as=0p ps=0u
M1058 a_4439_187.t1 CLK.t7 VDD.t1 pshort w=2u l=0.15u
+  ad=0p pd=0u as=0p ps=0u
M1059 a_1845_1050.t0 a_147_187.t10 VDD.t55 pshort w=2u l=0.15u
+  ad=0p pd=0u as=0p ps=0u
M1060 a_8861_1050.t1 a_9183_989.t7 VDD.t65 pshort w=2u l=0.15u
+  ad=0p pd=0u as=0p ps=0u
M1061 VDD.t33 a_4439_187.t10 a_4569_1050.t3 pshort w=2u l=0.15u
+  ad=0p pd=0u as=0p ps=0u
M1062 a_6137_1050.t2 a_4439_187.t11 VDD.t78 pshort w=2u l=0.15u
+  ad=0p pd=0u as=0p ps=0u
M1063 GND a_3177_1050.t6 a_3738_101.t0 nshort w=-1.605u l=1.765u
+  ad=0p pd=0u as=0p ps=0u
M1064 GND a_4569_1050.t10 a_7364_101.t0 nshort w=-1.605u l=1.765u
+  ad=0p pd=0u as=0p ps=0u
M1065 a_9183_989.t4 a_8861_1050.t10 VDD.t59 pshort w=2u l=0.15u
+  ad=0p pd=0u as=0p ps=0u
M1066 GND a_9183_989.t8 a_10324_101.t0 nshort w=-1.605u l=1.765u
+  ad=0p pd=0u as=0p ps=0u
M1067 a_13093_1051.t5 a_3303_411.t9 a_13757_1051.t0 pshort w=2u l=0.15u
+  ad=0p pd=0u as=0p ps=0u
M1068 a_11761_1050.t1 a_11887_411.t9 VDD.t34 pshort w=2u l=0.15u
+  ad=0p pd=0u as=0p ps=0u
M1069 a_3303_411.t3 a_147_187.t11 VDD.t75 pshort w=2u l=0.15u
+  ad=0p pd=0u as=0p ps=0u
M1070 VDD.t83 a_7595_411.t10 a_13093_1051.t7 pshort w=2u l=0.15u
+  ad=0p pd=0u as=0p ps=0u
M1071 VDD.t9 D.t5 a_599_989.t0 pshort w=2u l=0.15u
+  ad=0p pd=0u as=0p ps=0u
M1072 a_8731_187.t1 CLK.t9 VDD.t25 pshort w=2u l=0.15u
+  ad=0p pd=0u as=0p ps=0u
M1073 a_13757_1051.t7 a_11887_411.t11 a_13093_1051.t2 pshort w=2u l=0.15u
+  ad=0p pd=0u as=0p ps=0u
M1074 VDD.t67 a_8731_187.t11 a_10429_1050.t3 pshort w=2u l=0.15u
+  ad=0p pd=0u as=0p ps=0u
M1075 a_277_1050.t2 a_147_187.t12 VDD.t14 pshort w=2u l=0.15u
+  ad=0p pd=0u as=0p ps=0u
M1076 a_4439_187.t0 a_6137_1050.t6 VDD.t3 pshort w=2u l=0.15u
+  ad=0p pd=0u as=0p ps=0u
M1077 VDD.t70 a_7595_411.t11 a_7469_1050.t0 pshort w=2u l=0.15u
+  ad=0p pd=0u as=0p ps=0u
M1078 GND a_277_1050.t9 a_1074_101.t0 nshort w=-1.605u l=1.765u
+  ad=0p pd=0u as=0p ps=0u
M1079 VDD.t35 CLK.t12 a_4569_1050.t0 pshort w=2u l=0.15u
+  ad=0p pd=0u as=0p ps=0u
M1080 VDD.t76 a_599_989.t9 a_1845_1050.t3 pshort w=2u l=0.15u
+  ad=0p pd=0u as=0p ps=0u
M1081 a_11761_1050.t4 a_8861_1050.t11 VDD.t48 pshort w=2u l=0.15u
+  ad=0p pd=0u as=0p ps=0u
M1082 VDD.t23 a_11887_411.t12 a_13093_1051.t0 pshort w=2u l=0.15u
+  ad=0p pd=0u as=0p ps=0u
M1083 a_4891_989.t1 D.t7 VDD.t5 pshort w=2u l=0.15u
+  ad=0p pd=0u as=0p ps=0u
M1084 GND a_11761_1050.t7 a_12322_101.t0 nshort w=-1.605u l=1.765u
+  ad=0p pd=0u as=0p ps=0u
M1085 a_13757_1051.t1 a_3303_411.t10 a_13093_1051.t4 pshort w=2u l=0.15u
+  ad=0p pd=0u as=0p ps=0u
M1086 a_277_1050.t0 CLK.t13 VDD.t64 pshort w=2u l=0.15u
+  ad=0p pd=0u as=0p ps=0u
M1087 VDD.t10 a_4891_989.t8 a_4569_1050.t2 pshort w=2u l=0.15u
+  ad=0p pd=0u as=0p ps=0u
M1088 VDD.t62 a_277_1050.t10 a_3177_1050.t3 pshort w=2u l=0.15u
+  ad=0p pd=0u as=0p ps=0u
M1089 a_147_187.t3 CLK.t15 VDD.t63 pshort w=2u l=0.15u
+  ad=0p pd=0u as=0p ps=0u
M1090 VDD.t19 a_11761_1050.t6 a_11887_411.t0 pshort w=2u l=0.15u
+  ad=0p pd=0u as=0p ps=0u
M1091 GND a_6137_1050.t7 a_6698_101.t0 nshort w=-1.605u l=1.765u
+  ad=0p pd=0u as=0p ps=0u
M1092 GND a_277_1050.t12 a_3072_101.t0 nshort w=-1.605u l=1.765u
+  ad=0p pd=0u as=0p ps=0u
M1093 a_4891_989.t3 a_4569_1050.t11 VDD.t22 pshort w=2u l=0.15u
+  ad=0p pd=0u as=0p ps=0u
M1094 a_7595_411.t3 a_4439_187.t12 VDD.t52 pshort w=2u l=0.15u
+  ad=0p pd=0u as=0p ps=0u
M1095 GND a_4891_989.t10 a_6032_101.t0 nshort w=-1.605u l=1.765u
+  ad=0p pd=0u as=0p ps=0u
M1096 a_277_1050.t4 a_599_989.t10 VDD.t46 pshort w=2u l=0.15u
+  ad=0p pd=0u as=0p ps=0u
M1097 a_599_989.t4 a_277_1050.t11 VDD.t44 pshort w=2u l=0.15u
+  ad=0p pd=0u as=0p ps=0u
M1098 GND a_3303_411.t5 a_14320_101.t0 nshort w=-1.605u l=1.765u
+  ad=0p pd=0u as=0p ps=0u
M1099 a_13268_209.t0 a_3303_411.t11 a_13757_1051.t3 pshort w=2u l=0.15u
+  ad=0p pd=0u as=0p ps=0u
M1100 a_8861_1050.t4 a_8731_187.t12 VDD.t82 pshort w=2u l=0.15u
+  ad=0p pd=0u as=0p ps=0u
M1101 VDD.t30 CLK.t16 a_8731_187.t2 pshort w=2u l=0.15u
+  ad=0p pd=0u as=0p ps=0u
M1102 a_10429_1050.t1 a_9183_989.t10 VDD.t26 pshort w=2u l=0.15u
+  ad=0p pd=0u as=0p ps=0u
M1103 a_7469_1050.t3 a_4569_1050.t12 VDD.t20 pshort w=2u l=0.15u
+  ad=0p pd=0u as=0p ps=0u
M1104 a_147_187.t1 a_1845_1050.t7 VDD.t31 pshort w=2u l=0.15u
+  ad=0p pd=0u as=0p ps=0u
M1105 VDD.t80 a_3303_411.t12 a_3177_1050.t0 pshort w=2u l=0.15u
+  ad=0p pd=0u as=0p ps=0u
M1106 VDD.t72 a_8731_187.t13 a_11887_411.t1 pshort w=2u l=0.15u
+  ad=0p pd=0u as=0p ps=0u
M1107 VDD.t28 CLK.t17 a_8861_1050.t0 pshort w=2u l=0.15u
+  ad=0p pd=0u as=0p ps=0u
M1108 a_4569_1050.t4 a_4439_187.t13 VDD.t40 pshort w=2u l=0.15u
+  ad=0p pd=0u as=0p ps=0u
M1109 VDD.t16 a_4891_989.t9 a_6137_1050.t0 pshort w=2u l=0.15u
+  ad=0p pd=0u as=0p ps=0u
M1110 VDD.t58 a_8861_1050.t12 a_11761_1050.t3 pshort w=2u l=0.15u
+  ad=0p pd=0u as=0p ps=0u
M1111 GND a_8731_187.t7 a_8675_103.t0 nshort w=-1.605u l=1.765u
+  ad=0p pd=0u as=0p ps=0u
M1112 VDD.t13 a_3177_1050.t7 a_3303_411.t0 pshort w=2u l=0.15u
+  ad=0p pd=0u as=0p ps=0u
M1113 a_13093_1051.t6 a_7595_411.t13 VDD.t71 pshort w=2u l=0.15u
+  ad=0p pd=0u as=0p ps=0u
C0 VDD CLK 1.74fF
C1 VDD D 0.22fF
C2 VDD Q 0.76fF
C3 CLK D 0.45fF
R0 D.n5 D.t5 472.359
R1 D.n2 D.t3 472.359
R2 D.n0 D.t2 472.359
R3 D.n5 D.t0 384.527
R4 D.n2 D.t7 384.527
R5 D.n0 D.t4 384.527
R6 D.n6 D.n5 216.272
R7 D.n3 D.n2 216.272
R8 D.n1 D.n0 216.272
R9 D.n6 D.t1 141.114
R10 D.n3 D.t8 141.114
R11 D.n1 D.t6 141.114
R12 D.n4 D.n1 91.734
R13 D.n4 D.n3 76
R14 D.n7 D.n6 76
R15 D.n7 D.n4 15.734
R16 D.n7 D 0.046
R17 VDD.n799 VDD.n797 144.705
R18 VDD.n860 VDD.n858 144.705
R19 VDD.n921 VDD.n919 144.705
R20 VDD.n982 VDD.n980 144.705
R21 VDD.n1043 VDD.n1041 144.705
R22 VDD.n1104 VDD.n1102 144.705
R23 VDD.n1185 VDD.n1183 144.705
R24 VDD.n1246 VDD.n1244 144.705
R25 VDD.n1307 VDD.n1305 144.705
R26 VDD.n684 VDD.n682 144.705
R27 VDD.n1368 VDD.n1366 144.705
R28 VDD.n623 VDD.n621 144.705
R29 VDD.n542 VDD.n540 144.705
R30 VDD.n481 VDD.n479 144.705
R31 VDD.n420 VDD.n418 144.705
R32 VDD.n359 VDD.n357 144.705
R33 VDD.n298 VDD.n296 144.705
R34 VDD.n237 VDD.n235 144.705
R35 VDD.n176 VDD.n174 144.705
R36 VDD.n122 VDD.n120 144.705
R37 VDD.n68 VDD.n66 144.705
R38 VDD.n26 VDD.n25 77.792
R39 VDD.n35 VDD.n34 77.792
R40 VDD.n29 VDD.n23 76.145
R41 VDD.n29 VDD.n28 76
R42 VDD.n33 VDD.n32 76
R43 VDD.n39 VDD.n38 76
R44 VDD.n43 VDD.n42 76
R45 VDD.n70 VDD.n69 76
R46 VDD.n74 VDD.n73 76
R47 VDD.n78 VDD.n77 76
R48 VDD.n82 VDD.n81 76
R49 VDD.n86 VDD.n85 76
R50 VDD.n90 VDD.n89 76
R51 VDD.n94 VDD.n93 76
R52 VDD.n98 VDD.n97 76
R53 VDD.n124 VDD.n123 76
R54 VDD.n128 VDD.n127 76
R55 VDD.n132 VDD.n131 76
R56 VDD.n136 VDD.n135 76
R57 VDD.n140 VDD.n139 76
R58 VDD.n144 VDD.n143 76
R59 VDD.n148 VDD.n147 76
R60 VDD.n152 VDD.n151 76
R61 VDD.n178 VDD.n177 76
R62 VDD.n183 VDD.n182 76
R63 VDD.n188 VDD.n187 76
R64 VDD.n194 VDD.n193 76
R65 VDD.n199 VDD.n198 76
R66 VDD.n204 VDD.n203 76
R67 VDD.n209 VDD.n208 76
R68 VDD.n213 VDD.n212 76
R69 VDD.n239 VDD.n238 76
R70 VDD.n244 VDD.n243 76
R71 VDD.n249 VDD.n248 76
R72 VDD.n255 VDD.n254 76
R73 VDD.n260 VDD.n259 76
R74 VDD.n265 VDD.n264 76
R75 VDD.n270 VDD.n269 76
R76 VDD.n274 VDD.n273 76
R77 VDD.n300 VDD.n299 76
R78 VDD.n305 VDD.n304 76
R79 VDD.n310 VDD.n309 76
R80 VDD.n316 VDD.n315 76
R81 VDD.n321 VDD.n320 76
R82 VDD.n326 VDD.n325 76
R83 VDD.n331 VDD.n330 76
R84 VDD.n335 VDD.n334 76
R85 VDD.n361 VDD.n360 76
R86 VDD.n366 VDD.n365 76
R87 VDD.n371 VDD.n370 76
R88 VDD.n377 VDD.n376 76
R89 VDD.n382 VDD.n381 76
R90 VDD.n387 VDD.n386 76
R91 VDD.n392 VDD.n391 76
R92 VDD.n396 VDD.n395 76
R93 VDD.n422 VDD.n421 76
R94 VDD.n427 VDD.n426 76
R95 VDD.n432 VDD.n431 76
R96 VDD.n438 VDD.n437 76
R97 VDD.n443 VDD.n442 76
R98 VDD.n448 VDD.n447 76
R99 VDD.n453 VDD.n452 76
R100 VDD.n457 VDD.n456 76
R101 VDD.n483 VDD.n482 76
R102 VDD.n488 VDD.n487 76
R103 VDD.n493 VDD.n492 76
R104 VDD.n499 VDD.n498 76
R105 VDD.n504 VDD.n503 76
R106 VDD.n509 VDD.n508 76
R107 VDD.n514 VDD.n513 76
R108 VDD.n518 VDD.n517 76
R109 VDD.n544 VDD.n543 76
R110 VDD.n548 VDD.n547 76
R111 VDD.n552 VDD.n551 76
R112 VDD.n557 VDD.n556 76
R113 VDD.n564 VDD.n563 76
R114 VDD.n569 VDD.n568 76
R115 VDD.n574 VDD.n573 76
R116 VDD.n581 VDD.n580 76
R117 VDD.n586 VDD.n585 76
R118 VDD.n591 VDD.n590 76
R119 VDD.n595 VDD.n594 76
R120 VDD.n599 VDD.n598 76
R121 VDD.n625 VDD.n624 76
R122 VDD.n630 VDD.n629 76
R123 VDD.n635 VDD.n634 76
R124 VDD.n641 VDD.n640 76
R125 VDD.n646 VDD.n645 76
R126 VDD.n651 VDD.n650 76
R127 VDD.n656 VDD.n655 76
R128 VDD.n660 VDD.n659 76
R129 VDD.n686 VDD.n685 76
R130 VDD.n691 VDD.n690 76
R131 VDD.n696 VDD.n695 76
R132 VDD.n1391 VDD.n1390 76
R133 VDD.n1385 VDD.n1384 76
R134 VDD.n1380 VDD.n1379 76
R135 VDD.n1375 VDD.n1374 76
R136 VDD.n1370 VDD.n1369 76
R137 VDD.n1344 VDD.n1343 76
R138 VDD.n1340 VDD.n1339 76
R139 VDD.n1335 VDD.n1334 76
R140 VDD.n1330 VDD.n1329 76
R141 VDD.n1324 VDD.n1323 76
R142 VDD.n1319 VDD.n1318 76
R143 VDD.n1314 VDD.n1313 76
R144 VDD.n1309 VDD.n1308 76
R145 VDD.n1283 VDD.n1282 76
R146 VDD.n1279 VDD.n1278 76
R147 VDD.n1274 VDD.n1273 76
R148 VDD.n1269 VDD.n1268 76
R149 VDD.n1263 VDD.n1262 76
R150 VDD.n1258 VDD.n1257 76
R151 VDD.n1253 VDD.n1252 76
R152 VDD.n1248 VDD.n1247 76
R153 VDD.n1222 VDD.n1221 76
R154 VDD.n1218 VDD.n1217 76
R155 VDD.n1213 VDD.n1212 76
R156 VDD.n1208 VDD.n1207 76
R157 VDD.n1202 VDD.n1201 76
R158 VDD.n1197 VDD.n1196 76
R159 VDD.n1192 VDD.n1191 76
R160 VDD.n1187 VDD.n1186 76
R161 VDD.n1161 VDD.n1160 76
R162 VDD.n1157 VDD.n1156 76
R163 VDD.n1153 VDD.n1152 76
R164 VDD.n1149 VDD.n1148 76
R165 VDD.n1144 VDD.n1143 76
R166 VDD.n1137 VDD.n1136 76
R167 VDD.n1132 VDD.n1131 76
R168 VDD.n1127 VDD.n1126 76
R169 VDD.n1120 VDD.n1119 76
R170 VDD.n1115 VDD.n1114 76
R171 VDD.n1110 VDD.n1109 76
R172 VDD.n1106 VDD.n1105 76
R173 VDD.n1080 VDD.n1079 76
R174 VDD.n1076 VDD.n1075 76
R175 VDD.n1071 VDD.n1070 76
R176 VDD.n1066 VDD.n1065 76
R177 VDD.n1060 VDD.n1059 76
R178 VDD.n1055 VDD.n1054 76
R179 VDD.n1050 VDD.n1049 76
R180 VDD.n1045 VDD.n1044 76
R181 VDD.n1019 VDD.n1018 76
R182 VDD.n1015 VDD.n1014 76
R183 VDD.n1010 VDD.n1009 76
R184 VDD.n1005 VDD.n1004 76
R185 VDD.n999 VDD.n998 76
R186 VDD.n994 VDD.n993 76
R187 VDD.n989 VDD.n988 76
R188 VDD.n984 VDD.n983 76
R189 VDD.n958 VDD.n957 76
R190 VDD.n954 VDD.n953 76
R191 VDD.n949 VDD.n948 76
R192 VDD.n944 VDD.n943 76
R193 VDD.n938 VDD.n937 76
R194 VDD.n933 VDD.n932 76
R195 VDD.n928 VDD.n927 76
R196 VDD.n923 VDD.n922 76
R197 VDD.n897 VDD.n896 76
R198 VDD.n893 VDD.n892 76
R199 VDD.n888 VDD.n887 76
R200 VDD.n883 VDD.n882 76
R201 VDD.n877 VDD.n876 76
R202 VDD.n872 VDD.n871 76
R203 VDD.n867 VDD.n866 76
R204 VDD.n862 VDD.n861 76
R205 VDD.n836 VDD.n835 76
R206 VDD.n832 VDD.n831 76
R207 VDD.n827 VDD.n826 76
R208 VDD.n822 VDD.n821 76
R209 VDD.n816 VDD.n815 76
R210 VDD.n811 VDD.n810 76
R211 VDD.n806 VDD.n805 76
R212 VDD.n801 VDD.n800 76
R213 VDD.n774 VDD.n773 76
R214 VDD.n770 VDD.n769 76
R215 VDD.n766 VDD.n765 76
R216 VDD.n762 VDD.n761 76
R217 VDD.n757 VDD.n756 76
R218 VDD.n750 VDD.n749 76
R219 VDD.n745 VDD.n744 76
R220 VDD.n740 VDD.n739 76
R221 VDD.n733 VDD.n732 76
R222 VDD.n728 VDD.n727 76
R223 VDD.n723 VDD.n722 76
R224 VDD.n719 VDD.n718 76
R225 VDD.n554 VDD.n553 64.064
R226 VDD.n1146 VDD.n1145 64.064
R227 VDD.n759 VDD.n758 64.064
R228 VDD.n583 VDD.n582 59.488
R229 VDD.n1117 VDD.n1116 59.488
R230 VDD.n730 VDD.n729 59.488
R231 VDD.n205 VDD.t42 55.465
R232 VDD.n179 VDD.t83 55.465
R233 VDD.n724 VDD.t14 55.106
R234 VDD.n802 VDD.t44 55.106
R235 VDD.n863 VDD.t24 55.106
R236 VDD.n924 VDD.t31 55.106
R237 VDD.n985 VDD.t77 55.106
R238 VDD.n1046 VDD.t79 55.106
R239 VDD.n1111 VDD.t40 55.106
R240 VDD.n1188 VDD.t22 55.106
R241 VDD.n1249 VDD.t27 55.106
R242 VDD.n1310 VDD.t3 55.106
R243 VDD.n1371 VDD.t20 55.106
R244 VDD.n652 VDD.t54 55.106
R245 VDD.n587 VDD.t82 55.106
R246 VDD.n510 VDD.t59 55.106
R247 VDD.n449 VDD.t26 55.106
R248 VDD.n388 VDD.t57 55.106
R249 VDD.n327 VDD.t48 55.106
R250 VDD.n266 VDD.t73 55.106
R251 VDD.n37 VDD.t12 55.106
R252 VDD.n24 VDD.t53 55.106
R253 VDD.n765 VDD.t49 55.106
R254 VDD.n1152 VDD.t10 55.106
R255 VDD.n551 VDD.t51 55.106
R256 VDD.n828 VDD.t9 55.106
R257 VDD.n889 VDD.t38 55.106
R258 VDD.n950 VDD.t47 55.106
R259 VDD.n1011 VDD.t80 55.106
R260 VDD.n1072 VDD.t37 55.106
R261 VDD.n1214 VDD.t4 55.106
R262 VDD.n1275 VDD.t2 55.106
R263 VDD.n1336 VDD.t17 55.106
R264 VDD.n687 VDD.t70 55.106
R265 VDD.n626 VDD.t21 55.106
R266 VDD.n484 VDD.t7 55.106
R267 VDD.n423 VDD.t67 55.106
R268 VDD.n362 VDD.t30 55.106
R269 VDD.n301 VDD.t41 55.106
R270 VDD.n240 VDD.t72 55.106
R271 VDD.n190 VDD.n189 41.183
R272 VDD.n735 VDD.n734 40.824
R273 VDD.n755 VDD.n754 40.824
R274 VDD.n818 VDD.n817 40.824
R275 VDD.n879 VDD.n878 40.824
R276 VDD.n940 VDD.n939 40.824
R277 VDD.n1001 VDD.n1000 40.824
R278 VDD.n1062 VDD.n1061 40.824
R279 VDD.n1122 VDD.n1121 40.824
R280 VDD.n1142 VDD.n1141 40.824
R281 VDD.n1204 VDD.n1203 40.824
R282 VDD.n1265 VDD.n1264 40.824
R283 VDD.n1326 VDD.n1325 40.824
R284 VDD.n1387 VDD.n1386 40.824
R285 VDD.n637 VDD.n636 40.824
R286 VDD.n576 VDD.n575 40.824
R287 VDD.n562 VDD.n561 40.824
R288 VDD.n495 VDD.n494 40.824
R289 VDD.n434 VDD.n433 40.824
R290 VDD.n373 VDD.n372 40.824
R291 VDD.n312 VDD.n311 40.824
R292 VDD.n251 VDD.n250 40.824
R293 VDD.n841 VDD.n840 36.774
R294 VDD.n902 VDD.n901 36.774
R295 VDD.n963 VDD.n962 36.774
R296 VDD.n1024 VDD.n1023 36.774
R297 VDD.n1085 VDD.n1084 36.774
R298 VDD.n1166 VDD.n1165 36.774
R299 VDD.n1227 VDD.n1226 36.774
R300 VDD.n1288 VDD.n1287 36.774
R301 VDD.n1349 VDD.n1348 36.774
R302 VDD.n665 VDD.n664 36.774
R303 VDD.n604 VDD.n603 36.774
R304 VDD.n523 VDD.n522 36.774
R305 VDD.n462 VDD.n461 36.774
R306 VDD.n401 VDD.n400 36.774
R307 VDD.n340 VDD.n339 36.774
R308 VDD.n279 VDD.n278 36.774
R309 VDD.n218 VDD.n217 36.774
R310 VDD.n157 VDD.n156 36.774
R311 VDD.n103 VDD.n102 36.774
R312 VDD.n48 VDD.n47 36.774
R313 VDD.n790 VDD.n789 36.774
R314 VDD.n185 VDD.n184 36.608
R315 VDD.n246 VDD.n245 36.608
R316 VDD.n307 VDD.n306 36.608
R317 VDD.n368 VDD.n367 36.608
R318 VDD.n429 VDD.n428 36.608
R319 VDD.n490 VDD.n489 36.608
R320 VDD.n632 VDD.n631 36.608
R321 VDD.n693 VDD.n692 36.608
R322 VDD.n1332 VDD.n1331 36.608
R323 VDD.n1271 VDD.n1270 36.608
R324 VDD.n1210 VDD.n1209 36.608
R325 VDD.n1068 VDD.n1067 36.608
R326 VDD.n1007 VDD.n1006 36.608
R327 VDD.n946 VDD.n945 36.608
R328 VDD.n885 VDD.n884 36.608
R329 VDD.n824 VDD.n823 36.608
R330 VDD.n201 VDD.n200 32.032
R331 VDD.n262 VDD.n261 32.032
R332 VDD.n323 VDD.n322 32.032
R333 VDD.n384 VDD.n383 32.032
R334 VDD.n445 VDD.n444 32.032
R335 VDD.n506 VDD.n505 32.032
R336 VDD.n648 VDD.n647 32.032
R337 VDD.n1377 VDD.n1376 32.032
R338 VDD.n1316 VDD.n1315 32.032
R339 VDD.n1255 VDD.n1254 32.032
R340 VDD.n1194 VDD.n1193 32.032
R341 VDD.n1052 VDD.n1051 32.032
R342 VDD.n991 VDD.n990 32.032
R343 VDD.n930 VDD.n929 32.032
R344 VDD.n869 VDD.n868 32.032
R345 VDD.n808 VDD.n807 32.032
R346 VDD.n559 VDD.n558 27.456
R347 VDD.n1139 VDD.n1138 27.456
R348 VDD.n752 VDD.n751 27.456
R349 VDD.n578 VDD.n577 22.88
R350 VDD.n1124 VDD.n1123 22.88
R351 VDD.n737 VDD.n736 22.88
R352 VDD.n718 VDD.n715 21.841
R353 VDD.n23 VDD.n20 21.841
R354 VDD.n734 VDD.t64 14.282
R355 VDD.n734 VDD.t56 14.282
R356 VDD.n754 VDD.t46 14.282
R357 VDD.n754 VDD.t60 14.282
R358 VDD.n817 VDD.t8 14.282
R359 VDD.n817 VDD.t11 14.282
R360 VDD.n878 VDD.t55 14.282
R361 VDD.n878 VDD.t76 14.282
R362 VDD.n939 VDD.t63 14.282
R363 VDD.n939 VDD.t66 14.282
R364 VDD.n1000 VDD.t81 14.282
R365 VDD.n1000 VDD.t62 14.282
R366 VDD.n1061 VDD.t75 14.282
R367 VDD.n1061 VDD.t13 14.282
R368 VDD.n1121 VDD.t18 14.282
R369 VDD.n1121 VDD.t33 14.282
R370 VDD.n1141 VDD.t74 14.282
R371 VDD.n1141 VDD.t35 14.282
R372 VDD.n1203 VDD.t5 14.282
R373 VDD.n1203 VDD.t32 14.282
R374 VDD.n1264 VDD.t78 14.282
R375 VDD.n1264 VDD.t16 14.282
R376 VDD.n1325 VDD.t1 14.282
R377 VDD.n1325 VDD.t15 14.282
R378 VDD.n1386 VDD.t45 14.282
R379 VDD.n1386 VDD.t36 14.282
R380 VDD.n636 VDD.t52 14.282
R381 VDD.n636 VDD.t39 14.282
R382 VDD.n575 VDD.t50 14.282
R383 VDD.n575 VDD.t69 14.282
R384 VDD.n561 VDD.t65 14.282
R385 VDD.n561 VDD.t28 14.282
R386 VDD.n494 VDD.t6 14.282
R387 VDD.n494 VDD.t29 14.282
R388 VDD.n433 VDD.t0 14.282
R389 VDD.n433 VDD.t61 14.282
R390 VDD.n372 VDD.t25 14.282
R391 VDD.n372 VDD.t43 14.282
R392 VDD.n311 VDD.t34 14.282
R393 VDD.n311 VDD.t58 14.282
R394 VDD.n250 VDD.t68 14.282
R395 VDD.n250 VDD.t19 14.282
R396 VDD.n189 VDD.t71 14.282
R397 VDD.n189 VDD.t23 14.282
R398 VDD.n715 VDD.n698 14.167
R399 VDD.n698 VDD.n697 14.167
R400 VDD.n856 VDD.n838 14.167
R401 VDD.n838 VDD.n837 14.167
R402 VDD.n917 VDD.n899 14.167
R403 VDD.n899 VDD.n898 14.167
R404 VDD.n978 VDD.n960 14.167
R405 VDD.n960 VDD.n959 14.167
R406 VDD.n1039 VDD.n1021 14.167
R407 VDD.n1021 VDD.n1020 14.167
R408 VDD.n1100 VDD.n1082 14.167
R409 VDD.n1082 VDD.n1081 14.167
R410 VDD.n1181 VDD.n1163 14.167
R411 VDD.n1163 VDD.n1162 14.167
R412 VDD.n1242 VDD.n1224 14.167
R413 VDD.n1224 VDD.n1223 14.167
R414 VDD.n1303 VDD.n1285 14.167
R415 VDD.n1285 VDD.n1284 14.167
R416 VDD.n1364 VDD.n1346 14.167
R417 VDD.n1346 VDD.n1345 14.167
R418 VDD.n680 VDD.n662 14.167
R419 VDD.n662 VDD.n661 14.167
R420 VDD.n619 VDD.n601 14.167
R421 VDD.n601 VDD.n600 14.167
R422 VDD.n538 VDD.n520 14.167
R423 VDD.n520 VDD.n519 14.167
R424 VDD.n477 VDD.n459 14.167
R425 VDD.n459 VDD.n458 14.167
R426 VDD.n416 VDD.n398 14.167
R427 VDD.n398 VDD.n397 14.167
R428 VDD.n355 VDD.n337 14.167
R429 VDD.n337 VDD.n336 14.167
R430 VDD.n294 VDD.n276 14.167
R431 VDD.n276 VDD.n275 14.167
R432 VDD.n233 VDD.n215 14.167
R433 VDD.n215 VDD.n214 14.167
R434 VDD.n172 VDD.n154 14.167
R435 VDD.n154 VDD.n153 14.167
R436 VDD.n118 VDD.n100 14.167
R437 VDD.n100 VDD.n99 14.167
R438 VDD.n64 VDD.n45 14.167
R439 VDD.n45 VDD.n44 14.167
R440 VDD.n795 VDD.n776 14.167
R441 VDD.n776 VDD.n775 14.167
R442 VDD.n20 VDD.n19 14.167
R443 VDD.n19 VDD.n17 14.167
R444 VDD.n69 VDD.n65 14.167
R445 VDD.n123 VDD.n119 14.167
R446 VDD.n177 VDD.n173 14.167
R447 VDD.n238 VDD.n234 14.167
R448 VDD.n299 VDD.n295 14.167
R449 VDD.n360 VDD.n356 14.167
R450 VDD.n421 VDD.n417 14.167
R451 VDD.n482 VDD.n478 14.167
R452 VDD.n543 VDD.n539 14.167
R453 VDD.n624 VDD.n620 14.167
R454 VDD.n685 VDD.n681 14.167
R455 VDD.n1369 VDD.n1365 14.167
R456 VDD.n1308 VDD.n1304 14.167
R457 VDD.n1247 VDD.n1243 14.167
R458 VDD.n1186 VDD.n1182 14.167
R459 VDD.n1105 VDD.n1101 14.167
R460 VDD.n1044 VDD.n1040 14.167
R461 VDD.n983 VDD.n979 14.167
R462 VDD.n922 VDD.n918 14.167
R463 VDD.n861 VDD.n857 14.167
R464 VDD.n800 VDD.n796 14.167
R465 VDD.n571 VDD.n570 13.728
R466 VDD.n1129 VDD.n1128 13.728
R467 VDD.n742 VDD.n741 13.728
R468 VDD.n23 VDD.n22 13.653
R469 VDD.n22 VDD.n21 13.653
R470 VDD.n28 VDD.n27 13.653
R471 VDD.n27 VDD.n26 13.653
R472 VDD.n32 VDD.n31 13.653
R473 VDD.n31 VDD.n30 13.653
R474 VDD.n38 VDD.n36 13.653
R475 VDD.n36 VDD.n35 13.653
R476 VDD.n42 VDD.n41 13.653
R477 VDD.n41 VDD.n40 13.653
R478 VDD.n69 VDD.n68 13.653
R479 VDD.n68 VDD.n67 13.653
R480 VDD.n73 VDD.n72 13.653
R481 VDD.n72 VDD.n71 13.653
R482 VDD.n77 VDD.n76 13.653
R483 VDD.n76 VDD.n75 13.653
R484 VDD.n81 VDD.n80 13.653
R485 VDD.n80 VDD.n79 13.653
R486 VDD.n85 VDD.n84 13.653
R487 VDD.n84 VDD.n83 13.653
R488 VDD.n89 VDD.n88 13.653
R489 VDD.n88 VDD.n87 13.653
R490 VDD.n93 VDD.n92 13.653
R491 VDD.n92 VDD.n91 13.653
R492 VDD.n97 VDD.n96 13.653
R493 VDD.n96 VDD.n95 13.653
R494 VDD.n123 VDD.n122 13.653
R495 VDD.n122 VDD.n121 13.653
R496 VDD.n127 VDD.n126 13.653
R497 VDD.n126 VDD.n125 13.653
R498 VDD.n131 VDD.n130 13.653
R499 VDD.n130 VDD.n129 13.653
R500 VDD.n135 VDD.n134 13.653
R501 VDD.n134 VDD.n133 13.653
R502 VDD.n139 VDD.n138 13.653
R503 VDD.n138 VDD.n137 13.653
R504 VDD.n143 VDD.n142 13.653
R505 VDD.n142 VDD.n141 13.653
R506 VDD.n147 VDD.n146 13.653
R507 VDD.n146 VDD.n145 13.653
R508 VDD.n151 VDD.n150 13.653
R509 VDD.n150 VDD.n149 13.653
R510 VDD.n177 VDD.n176 13.653
R511 VDD.n176 VDD.n175 13.653
R512 VDD.n182 VDD.n181 13.653
R513 VDD.n181 VDD.n180 13.653
R514 VDD.n187 VDD.n186 13.653
R515 VDD.n186 VDD.n185 13.653
R516 VDD.n193 VDD.n192 13.653
R517 VDD.n192 VDD.n191 13.653
R518 VDD.n198 VDD.n197 13.653
R519 VDD.n197 VDD.n196 13.653
R520 VDD.n203 VDD.n202 13.653
R521 VDD.n202 VDD.n201 13.653
R522 VDD.n208 VDD.n207 13.653
R523 VDD.n207 VDD.n206 13.653
R524 VDD.n212 VDD.n211 13.653
R525 VDD.n211 VDD.n210 13.653
R526 VDD.n238 VDD.n237 13.653
R527 VDD.n237 VDD.n236 13.653
R528 VDD.n243 VDD.n242 13.653
R529 VDD.n242 VDD.n241 13.653
R530 VDD.n248 VDD.n247 13.653
R531 VDD.n247 VDD.n246 13.653
R532 VDD.n254 VDD.n253 13.653
R533 VDD.n253 VDD.n252 13.653
R534 VDD.n259 VDD.n258 13.653
R535 VDD.n258 VDD.n257 13.653
R536 VDD.n264 VDD.n263 13.653
R537 VDD.n263 VDD.n262 13.653
R538 VDD.n269 VDD.n268 13.653
R539 VDD.n268 VDD.n267 13.653
R540 VDD.n273 VDD.n272 13.653
R541 VDD.n272 VDD.n271 13.653
R542 VDD.n299 VDD.n298 13.653
R543 VDD.n298 VDD.n297 13.653
R544 VDD.n304 VDD.n303 13.653
R545 VDD.n303 VDD.n302 13.653
R546 VDD.n309 VDD.n308 13.653
R547 VDD.n308 VDD.n307 13.653
R548 VDD.n315 VDD.n314 13.653
R549 VDD.n314 VDD.n313 13.653
R550 VDD.n320 VDD.n319 13.653
R551 VDD.n319 VDD.n318 13.653
R552 VDD.n325 VDD.n324 13.653
R553 VDD.n324 VDD.n323 13.653
R554 VDD.n330 VDD.n329 13.653
R555 VDD.n329 VDD.n328 13.653
R556 VDD.n334 VDD.n333 13.653
R557 VDD.n333 VDD.n332 13.653
R558 VDD.n360 VDD.n359 13.653
R559 VDD.n359 VDD.n358 13.653
R560 VDD.n365 VDD.n364 13.653
R561 VDD.n364 VDD.n363 13.653
R562 VDD.n370 VDD.n369 13.653
R563 VDD.n369 VDD.n368 13.653
R564 VDD.n376 VDD.n375 13.653
R565 VDD.n375 VDD.n374 13.653
R566 VDD.n381 VDD.n380 13.653
R567 VDD.n380 VDD.n379 13.653
R568 VDD.n386 VDD.n385 13.653
R569 VDD.n385 VDD.n384 13.653
R570 VDD.n391 VDD.n390 13.653
R571 VDD.n390 VDD.n389 13.653
R572 VDD.n395 VDD.n394 13.653
R573 VDD.n394 VDD.n393 13.653
R574 VDD.n421 VDD.n420 13.653
R575 VDD.n420 VDD.n419 13.653
R576 VDD.n426 VDD.n425 13.653
R577 VDD.n425 VDD.n424 13.653
R578 VDD.n431 VDD.n430 13.653
R579 VDD.n430 VDD.n429 13.653
R580 VDD.n437 VDD.n436 13.653
R581 VDD.n436 VDD.n435 13.653
R582 VDD.n442 VDD.n441 13.653
R583 VDD.n441 VDD.n440 13.653
R584 VDD.n447 VDD.n446 13.653
R585 VDD.n446 VDD.n445 13.653
R586 VDD.n452 VDD.n451 13.653
R587 VDD.n451 VDD.n450 13.653
R588 VDD.n456 VDD.n455 13.653
R589 VDD.n455 VDD.n454 13.653
R590 VDD.n482 VDD.n481 13.653
R591 VDD.n481 VDD.n480 13.653
R592 VDD.n487 VDD.n486 13.653
R593 VDD.n486 VDD.n485 13.653
R594 VDD.n492 VDD.n491 13.653
R595 VDD.n491 VDD.n490 13.653
R596 VDD.n498 VDD.n497 13.653
R597 VDD.n497 VDD.n496 13.653
R598 VDD.n503 VDD.n502 13.653
R599 VDD.n502 VDD.n501 13.653
R600 VDD.n508 VDD.n507 13.653
R601 VDD.n507 VDD.n506 13.653
R602 VDD.n513 VDD.n512 13.653
R603 VDD.n512 VDD.n511 13.653
R604 VDD.n517 VDD.n516 13.653
R605 VDD.n516 VDD.n515 13.653
R606 VDD.n543 VDD.n542 13.653
R607 VDD.n542 VDD.n541 13.653
R608 VDD.n547 VDD.n546 13.653
R609 VDD.n546 VDD.n545 13.653
R610 VDD.n551 VDD.n550 13.653
R611 VDD.n550 VDD.n549 13.653
R612 VDD.n556 VDD.n555 13.653
R613 VDD.n555 VDD.n554 13.653
R614 VDD.n563 VDD.n560 13.653
R615 VDD.n560 VDD.n559 13.653
R616 VDD.n568 VDD.n567 13.653
R617 VDD.n567 VDD.n566 13.653
R618 VDD.n573 VDD.n572 13.653
R619 VDD.n572 VDD.n571 13.653
R620 VDD.n580 VDD.n579 13.653
R621 VDD.n579 VDD.n578 13.653
R622 VDD.n585 VDD.n584 13.653
R623 VDD.n584 VDD.n583 13.653
R624 VDD.n590 VDD.n589 13.653
R625 VDD.n589 VDD.n588 13.653
R626 VDD.n594 VDD.n593 13.653
R627 VDD.n593 VDD.n592 13.653
R628 VDD.n598 VDD.n597 13.653
R629 VDD.n597 VDD.n596 13.653
R630 VDD.n624 VDD.n623 13.653
R631 VDD.n623 VDD.n622 13.653
R632 VDD.n629 VDD.n628 13.653
R633 VDD.n628 VDD.n627 13.653
R634 VDD.n634 VDD.n633 13.653
R635 VDD.n633 VDD.n632 13.653
R636 VDD.n640 VDD.n639 13.653
R637 VDD.n639 VDD.n638 13.653
R638 VDD.n645 VDD.n644 13.653
R639 VDD.n644 VDD.n643 13.653
R640 VDD.n650 VDD.n649 13.653
R641 VDD.n649 VDD.n648 13.653
R642 VDD.n655 VDD.n654 13.653
R643 VDD.n654 VDD.n653 13.653
R644 VDD.n659 VDD.n658 13.653
R645 VDD.n658 VDD.n657 13.653
R646 VDD.n685 VDD.n684 13.653
R647 VDD.n684 VDD.n683 13.653
R648 VDD.n690 VDD.n689 13.653
R649 VDD.n689 VDD.n688 13.653
R650 VDD.n695 VDD.n694 13.653
R651 VDD.n694 VDD.n693 13.653
R652 VDD.n1390 VDD.n1389 13.653
R653 VDD.n1389 VDD.n1388 13.653
R654 VDD.n1384 VDD.n1383 13.653
R655 VDD.n1383 VDD.n1382 13.653
R656 VDD.n1379 VDD.n1378 13.653
R657 VDD.n1378 VDD.n1377 13.653
R658 VDD.n1374 VDD.n1373 13.653
R659 VDD.n1373 VDD.n1372 13.653
R660 VDD.n1369 VDD.n1368 13.653
R661 VDD.n1368 VDD.n1367 13.653
R662 VDD.n1343 VDD.n1342 13.653
R663 VDD.n1342 VDD.n1341 13.653
R664 VDD.n1339 VDD.n1338 13.653
R665 VDD.n1338 VDD.n1337 13.653
R666 VDD.n1334 VDD.n1333 13.653
R667 VDD.n1333 VDD.n1332 13.653
R668 VDD.n1329 VDD.n1328 13.653
R669 VDD.n1328 VDD.n1327 13.653
R670 VDD.n1323 VDD.n1322 13.653
R671 VDD.n1322 VDD.n1321 13.653
R672 VDD.n1318 VDD.n1317 13.653
R673 VDD.n1317 VDD.n1316 13.653
R674 VDD.n1313 VDD.n1312 13.653
R675 VDD.n1312 VDD.n1311 13.653
R676 VDD.n1308 VDD.n1307 13.653
R677 VDD.n1307 VDD.n1306 13.653
R678 VDD.n1282 VDD.n1281 13.653
R679 VDD.n1281 VDD.n1280 13.653
R680 VDD.n1278 VDD.n1277 13.653
R681 VDD.n1277 VDD.n1276 13.653