* SPICE3 file created from TMRDFFRNQNX1.ext - technology: sky130A

.subckt TMRDFFRNQNX1 QN D CLK RN VDD GND
M1000 a_5779_989.t1 RN.t0 VDD.t12 pshort w=2u l=0.15u
+  ad=0p pd=0u as=0p ps=0u
M1001 a_9009_1050.t4 a_9331_989.t5 VDD.t39 pshort w=2u l=0.15u
+  ad=0p pd=0u as=0p ps=0u
M1002 a_5457_1050.t1 CLK.t0 VDD.t95 pshort w=2u l=0.15u
+  ad=0p pd=0u as=0p ps=0u
M1003 GND a_9331_989.t7 a_16318_101.t0 nshort w=-1.605u l=1.765u
+  ad=3.7611p pd=32.97u as=0p ps=0u
M1004 a_15757_1051.t4 a_9331_989.t6 a_16421_1051.t3 pshort w=2u l=0.15u
+  ad=0p pd=0u as=0p ps=0u
M1005 VDD.t97 a_14511_989.t5 a_14189_1050.t3 pshort w=2u l=0.15u
+  ad=0p pd=0u as=0p ps=0u
M1006 VDD.t5 RN.t1 a_147_187.t1 pshort w=2u l=0.15u
+  ad=0p pd=0u as=0p ps=0u
M1007 GND a_5457_1050.t7 a_8823_103.t0 nshort w=-1.605u l=1.765u
+  ad=0p pd=0u as=0p ps=0u
M1008 VDD.t32 a_147_187.t8 a_4151_989.t2 pshort w=2u l=0.15u
+  ad=0p pd=0u as=0p ps=0u
M1009 VDD.t28 a_5327_187.t7 a_7321_1050.t3 pshort w=2u l=0.15u
+  ad=0p pd=0u as=0p ps=0u
M1010 a_16421_1051.t1 a_4151_989.t5 QN.t0 pshort w=2u l=0.15u
+  ad=0p pd=0u as=0p ps=0u
M1011 a_14511_989.t4 a_14189_1050.t7 VDD.t83 pshort w=2u l=0.15u
+  ad=0p pd=0u as=0p ps=0u
M1012 a_12501_1050.t1 a_10959_989.t8 VDD.t23 pshort w=2u l=0.15u
+  ad=0p pd=0u as=0p ps=0u
M1013 GND a_5457_1050.t8 a_6233_103.t0 nshort w=-1.605u l=1.765u
+  ad=0p pd=0u as=0p ps=0u
M1014 VDD.t8 RN.t3 a_10959_989.t4 pshort w=2u l=0.15u
+  ad=0p pd=0u as=0p ps=0u
M1015 QN a_14511_989.t8 a_16984_101.t0 nshort w=-1.83u l=2.06u
+  ad=0.5373p pd=4.72u as=0p ps=0u
M1016 a_5457_1050.t3 a_5779_989.t7 VDD.t29 pshort w=2u l=0.15u
+  ad=0p pd=0u as=0p ps=0u
M1017 a_5327_187.t3 RN.t5 VDD.t9 pshort w=2u l=0.15u
+  ad=0p pd=0u as=0p ps=0u
M1018 GND a_9009_1050.t8 a_9806_101.t0 nshort w=-1.605u l=1.765u
+  ad=0p pd=0u as=0p ps=0u
M1019 VDD.t64 a_147_187.t9 a_277_1050.t3 pshort w=2u l=0.15u
+  ad=0p pd=0u as=0p ps=0u
M1020 a_15757_1051.t7 a_4151_989.t6 a_16421_1051.t7 pshort w=2u l=0.15u
+  ad=0p pd=0u as=0p ps=0u
M1021 VDD.t96 a_10507_187.t9 a_10637_1050.t6 pshort w=2u l=0.15u
+  ad=0p pd=0u as=0p ps=0u
M1022 VDD.t3 a_12501_1050.t5 a_10507_187.t2 pshort w=2u l=0.15u
+  ad=0p pd=0u as=0p ps=0u
M1023 GND a_5779_989.t9 a_7216_101.t0 nshort w=-1.605u l=1.765u
+  ad=0p pd=0u as=0p ps=0u
M1024 VDD.t17 RN.t6 a_10507_187.t4 pshort w=2u l=0.15u
+  ad=0p pd=0u as=0p ps=0u
M1025 GND a_147_187.t10 a_91_103.t0 nshort w=-1.605u l=1.765u
+  ad=0p pd=0u as=0p ps=0u
M1026 a_14189_1050.t5 a_10637_1050.t7 VDD.t40 pshort w=2u l=0.15u
+  ad=0p pd=0u as=0p ps=0u
M1027 GND a_7321_1050.t5 a_7861_103.t0 nshort w=-1.605u l=1.765u
+  ad=0p pd=0u as=0p ps=0u
M1028 a_10959_989.t6 a_10637_1050.t8 VDD.t91 pshort w=2u l=0.15u
+  ad=0p pd=0u as=0p ps=0u
M1029 a_599_989.t6 D.t1 VDD.t49 pshort w=2u l=0.15u
+  ad=0p pd=0u as=0p ps=0u
M1030 a_16421_1051.t0 a_14511_989.t7 QN.t4 pshort w=2u l=0.15u
+  ad=0p pd=0u as=0p ps=0u
M1031 GND a_5327_187.t9 a_5271_103.t0 nshort w=-1.605u l=1.765u
+  ad=0p pd=0u as=0p ps=0u
M1032 a_5327_187.t1 CLK.t3 VDD.t86 pshort w=2u l=0.15u
+  ad=0p pd=0u as=0p ps=0u
M1033 VDD.t74 a_599_989.t8 a_2141_1050.t4 pshort w=2u l=0.15u
+  ad=0p pd=0u as=0p ps=0u
M1034 a_9331_989.t4 a_9009_1050.t7 VDD.t84 pshort w=2u l=0.15u
+  ad=0p pd=0u as=0p ps=0u
M1035 VDD.t78 CLK.t4 a_277_1050.t1 pshort w=2u l=0.15u
+  ad=0p pd=0u as=0p ps=0u
M1036 VDD.t94 a_5457_1050.t9 a_5779_989.t6 pshort w=2u l=0.15u
+  ad=0p pd=0u as=0p ps=0u
M1037 VDD.t93 a_5457_1050.t10 a_9009_1050.t6 pshort w=2u l=0.15u
+  ad=0p pd=0u as=0p ps=0u
M1038 VDD.t35 a_277_1050.t7 a_3829_1050.t3 pshort w=2u l=0.15u
+  ad=0p pd=0u as=0p ps=0u
M1039 VDD.t36 CLK.t5 a_10507_187.t1 pshort w=2u l=0.15u
+  ad=0p pd=0u as=0p ps=0u
M1040 VDD.t11 RN.t8 a_5779_989.t0 pshort w=2u l=0.15u
+  ad=0p pd=0u as=0p ps=0u
M1041 VDD.t38 a_9331_989.t8 a_9009_1050.t3 pshort w=2u l=0.15u
+  ad=0p pd=0u as=0p ps=0u
M1042 VDD.t65 CLK.t6 a_10637_1050.t1 pshort w=2u l=0.15u
+  ad=0p pd=0u as=0p ps=0u
M1043 a_9331_989.t2 a_5327_187.t8 VDD.t54 pshort w=2u l=0.15u
+  ad=0p pd=0u as=0p ps=0u
M1044 a_14189_1050.t1 RN.t9 VDD.t18 pshort w=2u l=0.15u
+  ad=0p pd=0u as=0p ps=0u
M1045 a_10959_989.t3 D.t2 VDD.t77 pshort w=2u l=0.15u
+  ad=0p pd=0u as=0p ps=0u
M1046 a_599_989.t1 RN.t10 VDD.t10 pshort w=2u l=0.15u
+  ad=0p pd=0u as=0p ps=0u
M1047 a_3829_1050.t5 a_4151_989.t7 VDD.t68 pshort w=2u l=0.15u
+  ad=0p pd=0u as=0p ps=0u
M1048 a_10637_1050.t5 a_10507_187.t10 VDD.t75 pshort w=2u l=0.15u
+  ad=0p pd=0u as=0p ps=0u
M1049 VDD.t0 a_14511_989.t9 a_15757_1051.t0 pshort w=2u l=0.15u
+  ad=0p pd=0u as=0p ps=0u
M1050 a_147_187.t5 CLK.t7 VDD.t88 pshort w=2u l=0.15u
+  ad=0p pd=0u as=0p ps=0u
M1051 GND a_12501_1050.t6 a_13041_103.t0 nshort w=-1.605u l=1.765u
+  ad=0p pd=0u as=0p ps=0u
M1052 QN a_4151_989.t10 a_16318_101.t0 nshort w=-1.235u l=1.535u
+  ad=0p pd=0u as=0p ps=0u
M1053 GND a_277_1050.t8 a_3643_103.t0 nshort w=-1.605u l=1.765u
+  ad=0p pd=0u as=0p ps=0u
M1054 a_4151_989.t4 a_3829_1050.t7 VDD.t33 pshort w=2u l=0.15u
+  ad=0p pd=0u as=0p ps=0u
M1055 a_9009_1050.t5 a_5457_1050.t11 VDD.t85 pshort w=2u l=0.15u
+  ad=0p pd=0u as=0p ps=0u
M1056 a_15757_1051.t2 a_9331_989.t9 VDD.t72 pshort w=2u l=0.15u
+  ad=0p pd=0u as=0p ps=0u
M1057 VDD.t82 a_14189_1050.t8 a_14511_989.t3 pshort w=2u l=0.15u
+  ad=0p pd=0u as=0p ps=0u
M1058 VDD.t25 a_10959_989.t9 a_12501_1050.t0 pshort w=2u l=0.15u
+  ad=0p pd=0u as=0p ps=0u
M1059 VDD.t52 a_147_187.t11 a_2141_1050.t1 pshort w=2u l=0.15u
+  ad=0p pd=0u as=0p ps=0u
M1060 VDD.t45 a_599_989.t9 a_277_1050.t4 pshort w=2u l=0.15u
+  ad=0p pd=0u as=0p ps=0u
M1061 VDD.t20 RN.t12 a_9009_1050.t1 pshort w=2u l=0.15u
+  ad=0p pd=0u as=0p ps=0u
M1062 VDD.t30 D.t4 a_5779_989.t3 pshort w=2u l=0.15u
+  ad=0p pd=0u as=0p ps=0u
M1063 VDD.t70 a_2141_1050.t5 a_147_187.t4 pshort w=2u l=0.15u
+  ad=0p pd=0u as=0p ps=0u
M1064 VDD.t90 a_5327_187.t11 a_5457_1050.t6 pshort w=2u l=0.15u
+  ad=0p pd=0u as=0p ps=0u
M1065 VDD.t51 a_7321_1050.t6 a_5327_187.t5 pshort w=2u l=0.15u
+  ad=0p pd=0u as=0p ps=0u
M1066 GND a_3829_1050.t8 a_4626_101.t0 nshort w=-1.605u l=1.765u
+  ad=0p pd=0u as=0p ps=0u
M1067 a_14189_1050.t2 a_14511_989.t11 VDD.t27 pshort w=2u l=0.15u
+  ad=0p pd=0u as=0p ps=0u
M1068 a_10959_989.t5 RN.t13 VDD.t7 pshort w=2u l=0.15u
+  ad=0p pd=0u as=0p ps=0u
M1069 GND a_599_989.t10 a_2036_101.t0 nshort w=-1.605u l=1.765u
+  ad=0p pd=0u as=0p ps=0u
M1070 a_147_187.t0 RN.t14 VDD.t4 pshort w=2u l=0.15u
+  ad=0p pd=0u as=0p ps=0u
M1071 GND a_10637_1050.t9 a_14003_103.t0 nshort w=-1.605u l=1.765u
+  ad=0p pd=0u as=0p ps=0u
M1072 GND a_2141_1050.t6 a_2681_103.t0 nshort w=-1.605u l=1.765u
+  ad=0p pd=0u as=0p ps=0u
M1073 a_4151_989.t1 a_147_187.t12 VDD.t53 pshort w=2u l=0.15u
+  ad=0p pd=0u as=0p ps=0u
M1074 a_7321_1050.t2 a_5327_187.t12 VDD.t2 pshort w=2u l=0.15u
+  ad=0p pd=0u as=0p ps=0u
M1075 QN.t5 a_4151_989.t9 a_16421_1051.t6 pshort w=2u l=0.15u
+  ad=0p pd=0u as=0p ps=0u
M1076 VDD.t24 a_10959_989.t10 a_10637_1050.t3 pshort w=2u l=0.15u
+  ad=0p pd=0u as=0p ps=0u
M1077 a_15757_1051.t6 a_14511_989.t12 VDD.t58 pshort w=2u l=0.15u
+  ad=0p pd=0u as=0p ps=0u
M1078 VDD.t79 a_10507_187.t12 a_14511_989.t1 pshort w=2u l=0.15u
+  ad=0p pd=0u as=0p ps=0u
M1079 VDD.t59 a_10507_187.t13 a_12501_1050.t3 pshort w=2u l=0.15u
+  ad=0p pd=0u as=0p ps=0u
M1080 GND a_9331_989.t10 a_15652_101.t0 nshort w=-1.605u l=1.765u
+  ad=0p pd=0u as=0p ps=0u
M1081 GND a_14189_1050.t9 a_14986_101.t0 nshort w=-1.605u l=1.765u
+  ad=0p pd=0u as=0p ps=0u
M1082 a_277_1050.t2 a_147_187.t13 VDD.t46 pshort w=2u l=0.15u
+  ad=0p pd=0u as=0p ps=0u
M1083 a_16421_1051.t4 a_4151_989.t11 a_15757_1051.t5 pshort w=2u l=0.15u
+  ad=0p pd=0u as=0p ps=0u
M1084 VDD.t41 a_9009_1050.t9 a_9331_989.t0 pshort w=2u l=0.15u
+  ad=0p pd=0u as=0p ps=0u
M1085 a_10507_187.t6 a_12501_1050.t7 VDD.t55 pshort w=2u l=0.15u
+  ad=0p pd=0u as=0p ps=0u
M1086 a_10507_187.t3 RN.t15 VDD.t6 pshort w=2u l=0.15u
+  ad=0p pd=0u as=0p ps=0u
M1087 a_10637_1050.t2 a_10959_989.t11 VDD.t22 pshort w=2u l=0.15u
+  ad=0p pd=0u as=0p ps=0u
M1088 a_7321_1050.t1 a_5779_989.t10 VDD.t69 pshort w=2u l=0.15u
+  ad=0p pd=0u as=0p ps=0u
M1089 VDD.t71 a_277_1050.t9 a_599_989.t4 pshort w=2u l=0.15u
+  ad=0p pd=0u as=0p ps=0u
M1090 QN.t3 a_14511_989.t13 a_16421_1051.t5 pshort w=2u l=0.15u
+  ad=0p pd=0u as=0p ps=0u
M1091 VDD.t89 a_4151_989.t12 a_3829_1050.t4 pshort w=2u l=0.15u
+  ad=0p pd=0u as=0p ps=0u
M1092 VDD.t13 RN.t17 a_599_989.t0 pshort w=2u l=0.15u
+  ad=0p pd=0u as=0p ps=0u
M1093 GND a_277_1050.t11 a_1053_103.t0 nshort w=-1.605u l=1.765u
+  ad=0p pd=0u as=0p ps=0u
M1094 a_2141_1050.t3 a_599_989.t11 VDD.t62 pshort w=2u l=0.15u
+  ad=0p pd=0u as=0p ps=0u
M1095 VDD.t43 a_5779_989.t11 a_5457_1050.t2 pshort w=2u l=0.15u
+  ad=0p pd=0u as=0p ps=0u
M1096 VDD.t14 RN.t19 a_5327_187.t2 pshort w=2u l=0.15u
+  ad=0p pd=0u as=0p ps=0u
M1097 a_16421_1051.t2 a_9331_989.t11 a_15757_1051.t3 pshort w=2u l=0.15u
+  ad=0p pd=0u as=0p ps=0u
M1098 a_277_1050.t0 CLK.t11 VDD.t26 pshort w=2u l=0.15u
+  ad=0p pd=0u as=0p ps=0u
M1099 a_3829_1050.t2 a_277_1050.t10 VDD.t92 pshort w=2u l=0.15u
+  ad=0p pd=0u as=0p ps=0u
M1100 a_5779_989.t5 a_5457_1050.t12 VDD.t80 pshort w=2u l=0.15u
+  ad=0p pd=0u as=0p ps=0u
M1101 GND a_4151_989.t13 a_16984_101.t0 nshort w=-1.605u l=1.765u
+  ad=0p pd=0u as=0p ps=0u
M1102 a_10507_187.t0 CLK.t12 VDD.t81 pshort w=2u l=0.15u
+  ad=0p pd=0u as=0p ps=0u
M1103 a_10637_1050.t0 CLK.t13 VDD.t76 pshort w=2u l=0.15u
+  ad=0p pd=0u as=0p ps=0u
M1104 VDD.t63 a_10637_1050.t10 a_14189_1050.t6 pshort w=2u l=0.15u
+  ad=0p pd=0u as=0p ps=0u
M1105 VDD.t61 a_10637_1050.t11 a_10959_989.t1 pshort w=2u l=0.15u
+  ad=0p pd=0u as=0p ps=0u
M1106 GND a_10637_1050.t12 a_11413_103.t0 nshort w=-1.605u l=1.765u
+  ad=0p pd=0u as=0p ps=0u
M1107 VDD.t48 D.t5 a_599_989.t5 pshort w=2u l=0.15u
+  ad=0p pd=0u as=0p ps=0u
M1108 VDD.t21 RN.t21 a_3829_1050.t1 pshort w=2u l=0.15u
+  ad=0p pd=0u as=0p ps=0u
M1109 a_599_989.t3 a_277_1050.t12 VDD.t34 pshort w=2u l=0.15u
+  ad=0p pd=0u as=0p ps=0u
M1110 VDD.t99 CLK.t15 a_5327_187.t0 pshort w=2u l=0.15u
+  ad=0p pd=0u as=0p ps=0u
M1111 VDD.t87 CLK.t16 a_5457_1050.t0 pshort w=2u l=0.15u
+  ad=0p pd=0u as=0p ps=0u
M1112 a_2141_1050.t0 a_147_187.t14 VDD.t47 pshort w=2u l=0.15u
+  ad=0p pd=0u as=0p ps=0u
M1113 GND a_10959_989.t7 a_12396_101.t0 nshort w=-1.605u l=1.765u
+  ad=0p pd=0u as=0p ps=0u
M1114 a_277_1050.t6 a_599_989.t12 VDD.t73 pshort w=2u l=0.15u
+  ad=0p pd=0u as=0p ps=0u
M1115 a_3829_1050.t0 RN.t23 VDD.t15 pshort w=2u l=0.15u
+  ad=0p pd=0u as=0p ps=0u
M1116 a_5779_989.t4 D.t6 VDD.t31 pshort w=2u l=0.15u
+  ad=0p pd=0u as=0p ps=0u
M1117 a_9009_1050.t0 RN.t24 VDD.t16 pshort w=2u l=0.15u
+  ad=0p pd=0u as=0p ps=0u
M1118 a_5457_1050.t5 a_5327_187.t14 VDD.t50 pshort w=2u l=0.15u
+  ad=0p pd=0u as=0p ps=0u
M1119 a_5327_187.t6 a_7321_1050.t7 VDD.t66 pshort w=2u l=0.15u
+  ad=0p pd=0u as=0p ps=0u
M1120 VDD.t67 a_5327_187.t15 a_9331_989.t3 pshort w=2u l=0.15u
+  ad=0p pd=0u as=0p ps=0u
M1121 a_147_187.t6 a_2141_1050.t7 VDD.t98 pshort w=2u l=0.15u
+  ad=0p pd=0u as=0p ps=0u
M1122 GND a_10507_187.t7 a_10451_103.t0 nshort w=-1.605u l=1.765u
+  ad=0p pd=0u as=0p ps=0u
M1123 VDD.t19 RN.t25 a_14189_1050.t0 pshort w=2u l=0.15u
+  ad=0p pd=0u as=0p ps=0u
M1124 VDD.t37 D.t7 a_10959_989.t0 pshort w=2u l=0.15u
+  ad=0p pd=0u as=0p ps=0u
M1125 QN a_14511_989.t6 a_15652_101.t0 nshort w=-1.605u l=1.765u
+  ad=0p pd=0u as=0p ps=0u
M1126 VDD.t57 CLK.t17 a_147_187.t3 pshort w=2u l=0.15u
+  ad=0p pd=0u as=0p ps=0u
M1127 VDD.t1 a_3829_1050.t9 a_4151_989.t0 pshort w=2u l=0.15u
+  ad=0p pd=0u as=0p ps=0u
M1128 VDD.t44 a_5779_989.t12 a_7321_1050.t0 pshort w=2u l=0.15u
+  ad=0p pd=0u as=0p ps=0u
M1129 VDD.t42 a_9331_989.t13 a_15757_1051.t1 pshort w=2u l=0.15u
+  ad=0p pd=0u as=0p ps=0u
M1130 a_14511_989.t0 a_10507_187.t14 VDD.t56 pshort w=2u l=0.15u
+  ad=0p pd=0u as=0p ps=0u
M1131 a_12501_1050.t2 a_10507_187.t15 VDD.t60 pshort w=2u l=0.15u
+  ad=0p pd=0u as=0p ps=0u
C0 VDD CLK 1.71fF
C1 VDD D 0.15fF
C2 CLK D 0.45fF
C3 VDD RN 0.50fF
C4 CLK RN 1.13fF
C5 VDD QN 0.29fF
C6 D RN 12.60fF
R0 a_10959_989.n5 a_10959_989.t9 480.392
R1 a_10959_989.n7 a_10959_989.t11 454.685
R2 a_10959_989.n7 a_10959_989.t10 428.979
R3 a_10959_989.n5 a_10959_989.t8 403.272
R4 a_10959_989.n6 a_10959_989.t7 283.48
R5 a_10959_989.n8 a_10959_989.t12 237.959
R6 a_10959_989.n12 a_10959_989.n10 219.626
R7 a_10959_989.n10 a_10959_989.n4 170.799
R8 a_10959_989.n8 a_10959_989.n7 98.447
R9 a_10959_989.n6 a_10959_989.n5 98.447
R10 a_10959_989.n9 a_10959_989.n8 80.035
R11 a_10959_989.n3 a_10959_989.n2 79.232
R12 a_10959_989.n9 a_10959_989.n6 77.315
R13 a_10959_989.n10 a_10959_989.n9 76
R14 a_10959_989.n4 a_10959_989.n3 63.152
R15 a_10959_989.n4 a_10959_989.n0 16.08
R16 a_10959_989.n3 a_10959_989.n1 16.08
R17 a_10959_989.n12 a_10959_989.n11 15.218
R18 a_10959_989.n0 a_10959_989.t4 14.282
R19 a_10959_989.n0 a_10959_989.t5 14.282
R20 a_10959_989.n1 a_10959_989.t0 14.282
R21 a_10959_989.n1 a_10959_989.t3 14.282
R22 a_10959_989.n2 a_10959_989.t1 14.282
R23 a_10959_989.n2 a_10959_989.t6 14.282
R24 a_10959_989.n13 a_10959_989.n12 12.014
R25 a_12396_101.n10 a_12396_101.n9 93.333
R26 a_12396_101.n2 a_12396_101.n1 41.622
R27 a_12396_101.n13 a_12396_101.n12 26.667
R28 a_12396_101.n6 a_12396_101.n5 24.977
R29 a_12396_101.t0 a_12396_101.n2 21.209
R30 a_12396_101.t0 a_12396_101.n3 11.595
R31 a_12396_101.t1 a_12396_101.n8 8.137
R32 a_12396_101.t0 a_12396_101.n0 6.109
R33 a_12396_101.t1 a_12396_101.n7 4.864
R34 a_12396_101.t0 a_12396_101.n4 3.871
R35 a_12396_101.t0 a_12396_101.n13 2.535
R36 a_12396_101.n13 a_12396_101.t1 1.145
R37 a_12396_101.n7 a_12396_101.n6 1.13
R38 a_12396_101.t1 a_12396_101.n11 0.804
R39 a_12396_101.n11 a_12396_101.n10 0.136
R40 GND.n26 GND.n24 219.745
R41 GND.n56 GND.n54 219.745
R42 GND.n432 GND.n431 219.745
R43 GND.n474 GND.n472 219.745
R44 GND.n507 GND.n505 219.745
R45 GND.n549 GND.n547 219.745
R46 GND.n591 GND.n589 219.745
R47 GND.n621 GND.n619 219.745
R48 GND.n663 GND.n661 219.745
R49 GND.n705 GND.n703 219.745
R50 GND.n735 GND.n733 219.745
R51 GND.n387 GND.n385 219.745
R52 GND.n347 GND.n345 219.745
R53 GND.n317 GND.n315 219.745
R54 GND.n275 GND.n273 219.745
R55 GND.n230 GND.n228 219.745
R56 GND.n200 GND.n198 219.745
R57 GND.n158 GND.n156 219.745
R58 GND.n116 GND.n114 219.745
R59 GND.n86 GND.n85 219.745
R60 GND.n147 GND.n146 85.559
R61 GND.n189 GND.n188 85.559
R62 GND.n306 GND.n305 85.559
R63 GND.n378 GND.n377 85.559
R64 GND.n744 GND.n743 85.559
R65 GND.n672 GND.n671 85.559
R66 GND.n630 GND.n629 85.559
R67 GND.n558 GND.n557 85.559
R68 GND.n516 GND.n515 85.559
R69 GND.n441 GND.n440 85.559
R70 GND.n399 GND.n398 85.559
R71 GND.n26 GND.n25 85.529
R72 GND.n56 GND.n55 85.529
R73 GND.n432 GND.n430 85.529
R74 GND.n474 GND.n473 85.529
R75 GND.n507 GND.n506 85.529
R76 GND.n549 GND.n548 85.529
R77 GND.n591 GND.n590 85.529
R78 GND.n621 GND.n620 85.529
R79 GND.n663 GND.n662 85.529
R80 GND.n705 GND.n704 85.529
R81 GND.n735 GND.n734 85.529
R82 GND.n387 GND.n386 85.529
R83 GND.n347 GND.n346 85.529
R84 GND.n317 GND.n316 85.529
R85 GND.n275 GND.n274 85.529
R86 GND.n230 GND.n229 85.529
R87 GND.n200 GND.n199 85.529
R88 GND.n158 GND.n157 85.529
R89 GND.n116 GND.n115 85.529
R90 GND.n86 GND.n84 85.529
R91 GND.n44 GND.n43 84.842
R92 GND.n74 GND.n73 84.842
R93 GND.n104 GND.n103 84.842
R94 GND.n218 GND.n217 84.842
R95 GND.n335 GND.n334 84.842
R96 GND.n713 GND.n712 84.842
R97 GND.n599 GND.n598 84.842
R98 GND.n14 GND.n13 84.842
R99 GND.n393 GND.n392 76
R100 GND.n39 GND.n38 76
R101 GND.n42 GND.n41 76
R102 GND.n47 GND.n46 76
R103 GND.n50 GND.n49 76
R104 GND.n53 GND.n52 76
R105 GND.n60 GND.n59 76
R106 GND.n63 GND.n62 76
R107 GND.n66 GND.n65 76
R108 GND.n69 GND.n68 76
R109 GND.n72 GND.n71 76
R110 GND.n77 GND.n76 76
R111 GND.n80 GND.n79 76
R112 GND.n83 GND.n82 76
R113 GND.n90 GND.n89 76
R114 GND.n93 GND.n92 76
R115 GND.n96 GND.n95 76
R116 GND.n99 GND.n98 76
R117 GND.n102 GND.n101 76
R118 GND.n107 GND.n106 76
R119 GND.n110 GND.n109 76
R120 GND.n113 GND.n112 76
R121 GND.n120 GND.n119 76
R122 GND.n123 GND.n122 76
R123 GND.n126 GND.n125 76
R124 GND.n129 GND.n128 76
R125 GND.n132 GND.n131 76
R126 GND.n135 GND.n134 76
R127 GND.n138 GND.n137 76
R128 GND.n141 GND.n140 76
R129 GND.n144 GND.n143 76
R130 GND.n149 GND.n148 76
R131 GND.n152 GND.n151 76
R132 GND.n155 GND.n154 76
R133 GND.n162 GND.n161 76
R134 GND.n165 GND.n164 76
R135 GND.n168 GND.n167 76
R136 GND.n171 GND.n170 76
R137 GND.n174 GND.n173 76
R138 GND.n177 GND.n176 76
R139 GND.n180 GND.n179 76
R140 GND.n183 GND.n182 76
R141 GND.n186 GND.n185 76
R142 GND.n191 GND.n190 76
R143 GND.n194 GND.n193 76
R144 GND.n197 GND.n196 76
R145 GND.n204 GND.n203 76
R146 GND.n207 GND.n206 76
R147 GND.n210 GND.n209 76
R148 GND.n213 GND.n212 76
R149 GND.n216 GND.n215 76
R150 GND.n221 GND.n220 76
R151 GND.n224 GND.n223 76
R152 GND.n227 GND.n226 76
R153 GND.n234 GND.n233 76
R154 GND.n237 GND.n236 76
R155 GND.n240 GND.n239 76
R156 GND.n243 GND.n242 76
R157 GND.n246 GND.n245 76
R158 GND.n249 GND.n248 76
R159 GND.n252 GND.n251 76
R160 GND.n255 GND.n254 76
R161 GND.n258 GND.n257 76
R162 GND.n266 GND.n265 76
R163 GND.n269 GND.n268 76
R164 GND.n272 GND.n271 76
R165 GND.n279 GND.n278 76
R166 GND.n282 GND.n281 76
R167 GND.n285 GND.n284 76
R168 GND.n288 GND.n287 76
R169 GND.n291 GND.n290 76
R170 GND.n294 GND.n293 76
R171 GND.n297 GND.n296 76
R172 GND.n300 GND.n299 76
R173 GND.n303 GND.n302 76
R174 GND.n308 GND.n307 76
R175 GND.n311 GND.n310 76
R176 GND.n314 GND.n313 76
R177 GND.n321 GND.n320 76
R178 GND.n324 GND.n323 76
R179 GND.n327 GND.n326 76
R180 GND.n330 GND.n329 76
R181 GND.n333 GND.n332 76
R182 GND.n338 GND.n337 76
R183 GND.n341 GND.n340 76
R184 GND.n344 GND.n343 76
R185 GND.n351 GND.n350 76
R186 GND.n354 GND.n353 76
R187 GND.n357 GND.n356 76
R188 GND.n360 GND.n359 76
R189 GND.n363 GND.n362 76
R190 GND.n366 GND.n365 76
R191 GND.n369 GND.n368 76
R192 GND.n372 GND.n371 76
R193 GND.n375 GND.n374 76
R194 GND.n380 GND.n379 76
R195 GND.n383 GND.n382 76
R196 GND.n390 GND.n389 76
R197 GND.n773 GND.n772 76
R198 GND.n770 GND.n769 76
R199 GND.n767 GND.n766 76
R200 GND.n764 GND.n763 76
R201 GND.n761 GND.n760 76
R202 GND.n758 GND.n757 76
R203 GND.n755 GND.n754 76
R204 GND.n752 GND.n751 76
R205 GND.n749 GND.n748 76
R206 GND.n746 GND.n745 76
R207 GND.n741 GND.n740 76
R208 GND.n738 GND.n737 76
R209 GND.n731 GND.n730 76
R210 GND.n728 GND.n727 76
R211 GND.n725 GND.n724 76
R212 GND.n722 GND.n721 76
R213 GND.n719 GND.n718 76
R214 GND.n716 GND.n715 76
R215 GND.n711 GND.n710 76
R216 GND.n708 GND.n707 76
R217 GND.n701 GND.n700 76
R218 GND.n698 GND.n697 76
R219 GND.n695 GND.n694 76
R220 GND.n692 GND.n691 76
R221 GND.n689 GND.n688 76
R222 GND.n686 GND.n685 76
R223 GND.n683 GND.n682 76
R224 GND.n680 GND.n679 76
R225 GND.n677 GND.n676 76
R226 GND.n674 GND.n673 76
R227 GND.n669 GND.n668 76
R228 GND.n666 GND.n665 76
R229 GND.n659 GND.n658 76
R230 GND.n656 GND.n655 76
R231 GND.n653 GND.n652 76
R232 GND.n650 GND.n649 76
R233 GND.n647 GND.n646 76
R234 GND.n644 GND.n643 76
R235 GND.n641 GND.n640 76
R236 GND.n638 GND.n637 76
R237 GND.n635 GND.n634 76
R238 GND.n632 GND.n631 76
R239 GND.n627 GND.n626 76
R240 GND.n624 GND.n623 76
R241 GND.n617 GND.n616 76
R242 GND.n614 GND.n613 76
R243 GND.n611 GND.n610 76
R244 GND.n608 GND.n607 76
R245 GND.n605 GND.n604 76
R246 GND.n602 GND.n601 76
R247 GND.n597 GND.n596 76
R248 GND.n594 GND.n593 76
R249 GND.n587 GND.n586 76
R250 GND.n584 GND.n583 76
R251 GND.n581 GND.n580 76
R252 GND.n578 GND.n577 76
R253 GND.n575 GND.n574 76
R254 GND.n572 GND.n571 76
R255 GND.n569 GND.n568 76
R256 GND.n566 GND.n565 76
R257 GND.n563 GND.n562 76
R258 GND.n560 GND.n559 76
R259 GND.n555 GND.n554 76
R260 GND.n552 GND.n551 76
R261 GND.n545 GND.n544 76
R262 GND.n542 GND.n541 76
R263 GND.n539 GND.n538 76
R264 GND.n536 GND.n535 76
R265 GND.n533 GND.n532 76
R266 GND.n530 GND.n529 76
R267 GND.n527 GND.n526 76
R268 GND.n524 GND.n523 76
R269 GND.n521 GND.n520 76
R270 GND.n518 GND.n517 76
R271 GND.n513 GND.n512 76
R272 GND.n510 GND.n509 76
R273 GND.n503 GND.n502 76
R274 GND.n500 GND.n499 76
R275 GND.n497 GND.n496 76
R276 GND.n494 GND.n493 76
R277 GND.n491 GND.n490 76
R278 GND.n488 GND.n487 76
R279 GND.n480 GND.n479 76
R280 GND.n477 GND.n476 76
R281 GND.n470 GND.n469 76
R282 GND.n467 GND.n466 76
R283 GND.n464 GND.n463 76
R284 GND.n461 GND.n460 76
R285 GND.n458 GND.n457 76
R286 GND.n455 GND.n454 76
R287 GND.n452 GND.n451 76
R288 GND.n449 GND.n448 76
R289 GND.n446 GND.n445 76
R290 GND.n443 GND.n442 76
R291 GND.n438 GND.n437 76
R292 GND.n435 GND.n434 76
R293 GND.n428 GND.n427 76
R294 GND.n425 GND.n424 76
R295 GND.n422 GND.n421 76
R296 GND.n419 GND.n418 76
R297 GND.n416 GND.n415 76
R298 GND.n413 GND.n412 76
R299 GND.n410 GND.n409 76
R300 GND.n407 GND.n406 76
R301 GND.n404 GND.n403 76
R302 GND.n401 GND.n400 76
R303 GND.n396 GND.n395 76
R304 GND.n12 GND.n11 76
R305 GND.n17 GND.n16 76
R306 GND.n20 GND.n19 76
R307 GND.n23 GND.n22 76
R308 GND.n30 GND.n29 76
R309 GND.n33 GND.n32 76
R310 GND.n36 GND.n35 76
R311 GND.n264 GND.n263 64.552
R312 GND.n485 GND.n484 63.835
R313 GND.n8 GND.n7 34.942
R314 GND.n263 GND.n262 28.421
R315 GND.n484 GND.n483 28.421
R316 GND.n263 GND.n261 25.263
R317 GND.n484 GND.n482 25.263
R318 GND.n261 GND.n260 24.383
R319 GND.n482 GND.n481 24.383
R320 GND.n5 GND.n4 14.167
R321 GND.n4 GND.n2 14.167
R322 GND.n29 GND.n27 14.167
R323 GND.n59 GND.n57 14.167
R324 GND.n89 GND.n87 14.167
R325 GND.n119 GND.n117 14.167
R326 GND.n161 GND.n159 14.167
R327 GND.n203 GND.n201 14.167
R328 GND.n233 GND.n231 14.167
R329 GND.n278 GND.n276 14.167
R330 GND.n320 GND.n318 14.167
R331 GND.n350 GND.n348 14.167
R332 GND.n389 GND.n388 14.167
R333 GND.n737 GND.n736 14.167
R334 GND.n707 GND.n706 14.167
R335 GND.n665 GND.n664 14.167
R336 GND.n623 GND.n622 14.167
R337 GND.n593 GND.n592 14.167
R338 GND.n551 GND.n550 14.167
R339 GND.n509 GND.n508 14.167
R340 GND.n476 GND.n475 14.167
R341 GND.n434 GND.n433 14.167
R342 GND.n395 GND.n394 13.653
R343 GND.n400 GND.n397 13.653
R344 GND.n403 GND.n402 13.653
R345 GND.n406 GND.n405 13.653
R346 GND.n409 GND.n408 13.653
R347 GND.n412 GND.n411 13.653
R348 GND.n415 GND.n414 13.653
R349 GND.n418 GND.n417 13.653
R350 GND.n421 GND.n420 13.653
R351 GND.n424 GND.n423 13.653
R352 GND.n427 GND.n426 13.653
R353 GND.n434 GND.n429 13.653
R354 GND.n437 GND.n436 13.653
R355 GND.n442 GND.n439 13.653
R356 GND.n445 GND.n444 13.653
R357 GND.n448 GND.n447 13.653
R358 GND.n451 GND.n450 13.653
R359 GND.n454 GND.n453 13.653
R360 GND.n457 GND.n456 13.653
R361 GND.n460 GND.n459 13.653
R362 GND.n463 GND.n462 13.653
R363 GND.n466 GND.n465 13.653
R364 GND.n469 GND.n468 13.653
R365 GND.n476 GND.n471 13.653
R366 GND.n479 GND.n478 13.653
R367 GND.n487 GND.n486 13.653
R368 GND.n490 GND.n489 13.653
R369 GND.n493 GND.n492 13.653
R370 GND.n496 GND.n495 13.653
R371 GND.n499 GND.n498 13.653
R372 GND.n502 GND.n501 13.653
R373 GND.n509 GND.n504 13.653
R374 GND.n512 GND.n511 13.653
R375 GND.n517 GND.n514 13.653
R376 GND.n520 GND.n519 13.653
R377 GND.n523 GND.n522 13.653
R378 GND.n526 GND.n525 13.653
R379 GND.n529 GND.n528 13.653
R380 GND.n532 GND.n531 13.653
R381 GND.n535 GND.n534 13.653
R382 GND.n538 GND.n537 13.653
R383 GND.n541 GND.n540 13.653
R384 GND.n544 GND.n543 13.653
R385 GND.n551 GND.n546 13.653
R386 GND.n554 GND.n553 13.653
R387 GND.n559 GND.n556 13.653
R388 GND.n562 GND.n561 13.653
R389 GND.n565 GND.n564 13.653
R390 GND.n568 GND.n567 13.653
R391 GND.n571 GND.n570 13.653
R392 GND.n574 GND.n573 13.653
R393 GND.n577 GND.n576 13.653
R394 GND.n580 GND.n579 13.653
R395 GND.n583 GND.n582 13.653
R396 GND.n586 GND.n585 13.653
R397 GND.n593 GND.n588 13.653
R398 GND.n596 GND.n595 13.653
R399 GND.n601 GND.n600 13.653
R400 GND.n604 GND.n603 13.653
R401 GND.n607 GND.n606 13.653
R402 GND.n610 GND.n609 13.653
R403 GND.n613 GND.n612 13.653
R404 GND.n616 GND.n615 13.653
R405 GND.n623 GND.n618 13.653
R406 GND.n626 GND.n625 13.653
R407 GND.n631 GND.n628 13.653
R408 GND.n634 GND.n633 13.653
R409 GND.n637 GND.n636 13.653
R410 GND.n640 GND.n639 13.653
R411 GND.n643 GND.n642 13.653
R412 GND.n646 GND.n645 13.653
R413 GND.n649 GND.n648 13.653
R414 GND.n652 GND.n651 13.653
R415 GND.n655 GND.n654 13.653
R416 GND.n658 GND.n657 13.653
R417 GND.n665 GND.n660 13.653
R418 GND.n668 GND.n667 13.653
R419 GND.n673 GND.n670 13.653
R420 GND.n676 GND.n675 13.653
R421 GND.n679 GND.n678 13.653
R422 GND.n682 GND.n681 13.653
R423 GND.n685 GND.n684 13.653
R424 GND.n688 GND.n687 13.653
R425 GND.n691 GND.n690 13.653
R426 GND.n694 GND.n693 13.653
R427 GND.n697 GND.n696 13.653
R428 GND.n700 GND.n699 13.653
R429 GND.n707 GND.n702 13.653
R430 GND.n710 GND.n709 13.653
R431 GND.n715 GND.n714 13.653
R432 GND.n718 GND.n717 13.653
R433 GND.n721 GND.n720 13.653
R434 GND.n724 GND.n723 13.653
R435 GND.n727 GND.n726 13.653
R436 GND.n730 GND.n729 13.653
R437 GND.n737 GND.n732 13.653
R438 GND.n740 GND.n739 13.653
R439 GND.n745 GND.n742 13.653
R440 GND.n748 GND.n747 13.653
R441 GND.n751 GND.n750 13.653
R442 GND.n754 GND.n753 13.653
R443 GND.n757 GND.n756 13.653
R444 GND.n760 GND.n759 13.653
R445 GND.n763 GND.n762 13.653
R446 GND.n766 GND.n765 13.653
R447 GND.n769 GND.n768 13.653
R448 GND.n772 GND.n771 13.653
R449 GND.n389 GND.n384 13.653
R450 GND.n382 GND.n381 13.653
R451 GND.n379 GND.n376 13.653
R452 GND.n374 GND.n373 13.653
R453 GND.n371 GND.n370 13.653
R454 GND.n368 GND.n367 13.653
R455 GND.n365 GND.n364 13.653
R456 GND.n362 GND.n361 13.653
R457 GND.n359 GND.n358 13.653
R458 GND.n356 GND.n355 13.653
R459 GND.n353 GND.n352 13.653
R460 GND.n350 GND.n349 13.653
R461 GND.n343 GND.n342 13.653
R462 GND.n340 GND.n339 13.653
R463 GND.n337 GND.n336 13.653
R464 GND.n332 GND.n331 13.653
R465 GND.n329 GND.n328 13.653
R466 GND.n326 GND.n325 13.653
R467 GND.n323 GND.n322 13.653
R468 GND.n320 GND.n319 13.653
R469 GND.n313 GND.n312 13.653
R470 GND.n310 GND.n309 13.653
R471 GND.n307 GND.n304 13.653
R472 GND.n302 GND.n301 13.653
R473 GND.n299 GND.n298 13.653
R474 GND.n296 GND.n295 13.653
R475 GND.n293 GND.n292 13.653
R476 GND.n290 GND.n289 13.653
R477 GND.n287 GND.n286 13.653
R478 GND.n284 GND.n283 13.653
R479 GND.n281 GND.n280 13.653
R480 GND.n278 GND.n277 13.653
R481 GND.n271 GND.n270 13.653
R482 GND.n268 GND.n267 13.653
R483 GND.n265 GND.n259 13.653
R484 GND.n257 GND.n256 13.653
R485 GND.n254 GND.n253 13.653
R486 GND.n251 GND.n250 13.653
R487 GND.n248 GND.n247 13.653
R488 GND.n245 GND.n244 13.653
R489 GND.n242 GND.n241 13.653
R490 GND.n239 GND.n238 13.653
R491 GND.n236 GND.n235 13.653
R492 GND.n233 GND.n232 13.653
R493 GND.n226 GND.n225 13.653
R494 GND.n223 GND.n222 13.653
R495 GND.n220 GND.n219 13.653
R496 GND.n215 GND.n214 13.653
R497 GND.n212 GND.n211 13.653
R498 GND.n209 GND.n208 13.653
R499 GND.n206 GND.n205 13.653
R500 GND.n203 GND.n202 13.653
R501 GND.n196 GND.n195 13.653
R502 GND.n193 GND.n192 13.653
R503 GND.n190 GND.n187 13.653
R504 GND.n185 GND.n184 13.653
R505 GND.n182 GND.n181 13.653
R506 GND.n179 GND.n178 13.653
R507 GND.n176 GND.n175 13.653
R508 GND.n173 GND.n172 13.653
R509 GND.n170 GND.n169 13.653
R510 GND.n167 GND.n166 13.653
R511 GND.n164 GND.n163 13.653
R512 GND.n161 GND.n160 13.653
R513 GND.n154 GND.n153 13.653
R514 GND.n151 GND.n150 13.653
R515 GND.n148 GND.n145 13.653
R516 GND.n143 GND.n142 13.653
R517 GND.n140 GND.n139 13.653
R518 GND.n137 GND.n136 13.653
R519 GND.n134 GND.n133 13.653
R520 GND.n131 GND.n130 13.653
R521 GND.n128 GND.n127 13.653
R522 GND.n125 GND.n124 13.653
R523 GND.n122 GND.n121 13.653
R524 GND.n119 GND.n118 13.653
R525 GND.n112 GND.n111 13.653
R526 GND.n109 GND.n108 13.653
R527 GND.n106 GND.n105 13.653
R528 GND.n101 GND.n100 13.653
R529 GND.n98 GND.n97 13.653
R530 GND.n95 GND.n94 13.653
R531 GND.n92 GND.n91 13.653
R532 GND.n89 GND.n88 13.653
R533 GND.n82 GND.n81 13.653
R534 GND.n79 GND.n78 13.653
R535 GND.n76 GND.n75 13.653
R536 GND.n71 GND.n70 13.653
R537 GND.n68 GND.n67 13.653
R538 GND.n65 GND.n64 13.653
R539 GND.n62 GND.n61 13.653
R540 GND.n59 GND.n58 13.653
R541 GND.n52 GND.n51 13.653
R542 GND.n49 GND.n48 13.653
R543 GND.n46 GND.n45 13.653
R544 GND.n41 GND.n40 13.653
R545 GND.n38 GND.n37 13.653
R546 GND.n5 GND.n0 13.653
R547 GND.n4 GND.n3 13.653
R548 GND.n2 GND.n1 13.653
R549 GND.n11 GND.n10 13.653
R550 GND.n16 GND.n15 13.653
R551 GND.n19 GND.n18 13.653
R552 GND.n22 GND.n21 13.653
R553 GND.n29 GND.n28 13.653
R554 GND.n32 GND.n31 13.653
R555 GND.n35 GND.n34 13.653
R556 GND.n27 GND.n26 7.312
R557 GND.n57 GND.n56 7.312
R558 GND.n433 GND.n432 7.312
R559 GND.n475 GND.n474 7.312
R560 GND.n508 GND.n507 7.312
R561 GND.n550 GND.n549 7.312
R562 GND.n592 GND.n591 7.312
R563 GND.n622 GND.n621 7.312
R564 GND.n664 GND.n663 7.312
R565 GND.n706 GND.n705 7.312
R566 GND.n736 GND.n735 7.312
R567 GND.n388 GND.n387 7.312
R568 GND.n348 GND.n347 7.312
R569 GND.n318 GND.n317 7.312
R570 GND.n276 GND.n275 7.312
R571 GND.n231 GND.n230 7.312
R572 GND.n201 GND.n200 7.312
R573 GND.n159 GND.n158 7.312
R574 GND.n117 GND.n116 7.312
R575 GND.n87 GND.n86 7.312
R576 GND.n7 GND.n6 7.084
R577 GND.n7 GND.n5 6.475
R578 GND.n16 GND.n14 3.935
R579 GND.n46 GND.n44 3.935
R580 GND.n76 GND.n74 3.935
R581 GND.n106 GND.n104 3.935
R582 GND.n220 GND.n218 3.935
R583 GND.n337 GND.n335 3.935
R584 GND.n715 GND.n713 3.935
R585 GND.n601 GND.n599 3.935
R586 GND.n487 GND.n485 3.935
R587 GND.n392 GND.n391 0.596
R588 GND.n30 GND.n23 0.29
R589 GND.n60 GND.n53 0.29
R590 GND.n90 GND.n83 0.29
R591 GND.n120 GND.n113 0.29
R592 GND.n162 GND.n155 0.29
R593 GND.n204 GND.n197 0.29
R594 GND.n234 GND.n227 0.29
R595 GND.n279 GND.n272 0.29
R596 GND.n321 GND.n314 0.29
R597 GND.n351 GND.n344 0.29
R598 GND.n738 GND.n731 0.29
R599 GND.n708 GND.n701 0.29
R600 GND.n666 GND.n659 0.29
R601 GND.n624 GND.n617 0.29
R602 GND.n594 GND.n587 0.29
R603 GND.n552 GND.n545 0.29
R604 GND.n510 GND.n503 0.29
R605 GND.n477 GND.n470 0.29
R606 GND.n435 GND.n428 0.29
R607 GND GND.n773 0.219
R608 GND.n393 GND 0.207
R609 GND.n138 GND.n135 0.197
R610 GND.n180 GND.n177 0.197
R611 GND.n252 GND.n249 0.197
R612 GND.n297 GND.n294 0.197
R613 GND.n369 GND.n366 0.197
R614 GND.n758 GND.n755 0.197
R615 GND.n686 GND.n683 0.197
R616 GND.n644 GND.n641 0.197
R617 GND.n572 GND.n569 0.197
R618 GND.n530 GND.n527 0.197
R619 GND.n455 GND.n452 0.197
R620 GND.n413 GND.n410 0.197
R621 GND.n148 GND.n147 0.196
R622 GND.n190 GND.n189 0.196
R623 GND.n265 GND.n264 0.196