* SPICE3 file created from TMRDFFSNQNX1.ext - technology: sky130A

.subckt TMRDFFSNQNX1 QN D CLK SN VDD GND
M1000 a_8357_1050.t2 a_8483_411.t7 VDD.t34 pshort w=2u l=0.15u
+  ad=0p pd=0u as=0p ps=0u
M1001 a_3599_411.t1 a_3473_1050.t5 VDD.t40 pshort w=2u l=0.15u
+  ad=0p pd=0u as=0p ps=0u
M1002 VDD.t86 CLK.t0 a_6149_989.t2 pshort w=2u l=0.15u
+  ad=0p pd=0u as=0p ps=0u
M1003 VDD.t32 a_8483_411.t8 a_14869_1051.t5 pshort w=2u l=0.15u
+  ad=0p pd=0u as=0p ps=0u
M1004 GND a_11673_1050.t7 a_12470_101.t0 nshort w=-1.605u l=1.765u
+  ad=3.7611p pd=32.97u as=0p ps=0u
M1005 a_343_411.t5 a_1265_989.t5 VDD.t56 pshort w=2u l=0.15u
+  ad=0p pd=0u as=0p ps=0u
M1006 a_13367_411.t2 a_11033_989.t5 VDD.t39 pshort w=2u l=0.15u
+  ad=0p pd=0u as=0p ps=0u
M1007 VDD.t46 a_343_411.t7 a_3473_1050.t1 pshort w=2u l=0.15u
+  ad=0p pd=0u as=0p ps=0u
M1008 a_5227_411.t4 a_5101_1050.t5 VDD.t28 pshort w=2u l=0.15u
+  ad=0p pd=0u as=0p ps=0u
M1009 VDD.t10 SN.t2 a_8483_411.t0 pshort w=2u l=0.15u
+  ad=0p pd=0u as=0p ps=0u
M1010 a_1265_989.t3 CLK.t1 VDD.t3 pshort w=2u l=0.15u
+  ad=0p pd=0u as=0p ps=0u
M1011 GND a_8483_411.t9 a_15430_101.t0 nshort w=-1.605u l=1.765u
+  ad=0p pd=0u as=0p ps=0u
M1012 VDD.t63 SN.t3 a_1905_1050.t1 pshort w=2u l=0.15u
+  ad=0p pd=0u as=0p ps=0u
M1013 a_11673_1050.t3 a_9985_1050.t6 VDD.t2 pshort w=2u l=0.15u
+  ad=0p pd=0u as=0p ps=0u
M1014 VDD.t42 CLK.t2 a_5227_411.t6 pshort w=2u l=0.15u
+  ad=0p pd=0u as=0p ps=0u
M1015 a_15533_1051.t3 a_3599_411.t7 QN.t1 pshort w=2u l=0.15u
+  ad=0p pd=0u as=0p ps=0u
M1016 a_3599_411.t3 SN.t4 VDD.t65 pshort w=2u l=0.15u
+  ad=0p pd=0u as=0p ps=0u
M1017 GND a_217_1050.t5 a_757_103.t0 nshort w=-1.605u l=1.765u
+  ad=0p pd=0u as=0p ps=0u
M1018 QN a_13367_411.t9 a_16096_101.t0 nshort w=-1.83u l=2.06u
+  ad=0.5373p pd=4.72u as=0p ps=0u
M1019 VDD.t5 CLK.t4 a_11033_989.t4 pshort w=2u l=0.15u
+  ad=0p pd=0u as=0p ps=0u
M1020 GND D.t2 a_112_101.t0 nshort w=-1.605u l=1.765u
+  ad=0p pd=0u as=0p ps=0u
M1021 VDD.t64 a_8357_1050.t5 a_8483_411.t1 pshort w=2u l=0.15u
+  ad=0p pd=0u as=0p ps=0u
M1022 a_5227_411.t5 CLK.t5 VDD.t92 pshort w=2u l=0.15u
+  ad=0p pd=0u as=0p ps=0u
M1023 GND a_343_411.t8 a_3368_101.t0 nshort w=-1.605u l=1.765u
+  ad=0p pd=0u as=0p ps=0u
M1024 VDD.t9 D.t0 a_5101_1050.t0 pshort w=2u l=0.15u
+  ad=0p pd=0u as=0p ps=0u
M1025 a_14869_1051.t1 a_3599_411.t8 a_15533_1051.t1 pshort w=2u l=0.15u
+  ad=0p pd=0u as=0p ps=0u
M1026 VDD.t22 D.t1 a_217_1050.t4 pshort w=2u l=0.15u
+  ad=0p pd=0u as=0p ps=0u
M1027 VDD.t14 a_1265_989.t7 a_1905_1050.t6 pshort w=2u l=0.15u
+  ad=0p pd=0u as=0p ps=0u
M1028 a_9985_1050.t4 a_10111_411.t7 VDD.t87 pshort w=2u l=0.15u
+  ad=0p pd=0u as=0p ps=0u
M1029 GND a_8357_1050.t6 a_8897_103.t0 nshort w=-1.605u l=1.765u
+  ad=0p pd=0u as=0p ps=0u
M1030 VDD.t24 a_5101_1050.t6 a_6789_1050.t6 pshort w=2u l=0.15u
+  ad=0p pd=0u as=0p ps=0u
M1031 a_15533_1051.t5 a_13367_411.t8 QN.t4 pshort w=2u l=0.15u
+  ad=0p pd=0u as=0p ps=0u
M1032 VDD.t7 a_11033_989.t7 a_11673_1050.t5 pshort w=2u l=0.15u
+  ad=0p pd=0u as=0p ps=0u
M1033 a_3599_411.t5 a_1265_989.t9 VDD.t55 pshort w=2u l=0.15u
+  ad=0p pd=0u as=0p ps=0u
M1034 a_6789_1050.t2 a_6149_989.t5 VDD.t82 pshort w=2u l=0.15u
+  ad=0p pd=0u as=0p ps=0u
M1035 a_13241_1050.t1 a_10111_411.t8 VDD.t20 pshort w=2u l=0.15u
+  ad=0p pd=0u as=0p ps=0u
M1036 a_1905_1050.t2 a_217_1050.t6 VDD.t53 pshort w=2u l=0.15u
+  ad=0p pd=0u as=0p ps=0u
M1037 VDD.t29 a_11673_1050.t8 a_11033_989.t1 pshort w=2u l=0.15u
+  ad=0p pd=0u as=0p ps=0u
M1038 a_14869_1051.t3 a_8483_411.t10 a_15533_1051.t7 pshort w=2u l=0.15u
+  ad=0p pd=0u as=0p ps=0u
M1039 VDD.t89 a_343_411.t9 a_217_1050.t1 pshort w=2u l=0.15u
+  ad=0p pd=0u as=0p ps=0u
M1040 VDD.t47 a_5227_411.t8 a_5101_1050.t2 pshort w=2u l=0.15u
+  ad=0p pd=0u as=0p ps=0u
M1041 GND D.t3 a_9880_101.t0 nshort w=-1.605u l=1.765u
+  ad=0p pd=0u as=0p ps=0u
M1042 VDD.t37 a_217_1050.t7 a_343_411.t3 pshort w=2u l=0.15u
+  ad=0p pd=0u as=0p ps=0u
M1043 a_11673_1050.t4 a_11033_989.t8 VDD.t16 pshort w=2u l=0.15u
+  ad=0p pd=0u as=0p ps=0u
M1044 VDD.t77 a_13241_1050.t5 a_13367_411.t4 pshort w=2u l=0.15u
+  ad=0p pd=0u as=0p ps=0u
M1045 GND a_217_1050.t8 a_1719_103.t0 nshort w=-1.605u l=1.765u
+  ad=0p pd=0u as=0p ps=0u
M1046 a_3473_1050.t2 a_3599_411.t9 VDD.t50 pshort w=2u l=0.15u
+  ad=0p pd=0u as=0p ps=0u
M1047 a_10111_411.t3 CLK.t7 VDD.t61 pshort w=2u l=0.15u
+  ad=0p pd=0u as=0p ps=0u
M1048 QN a_3599_411.t10 a_15430_101.t0 nshort w=-1.235u l=1.535u
+  ad=0p pd=0u as=0p ps=0u
M1049 a_5227_411.t2 a_6149_989.t8 VDD.t81 pshort w=2u l=0.15u
+  ad=0p pd=0u as=0p ps=0u
M1050 a_13241_1050.t4 a_13367_411.t10 VDD.t74 pshort w=2u l=0.15u
+  ad=0p pd=0u as=0p ps=0u
M1051 VDD.t36 a_11033_989.t9 a_10111_411.t6 pshort w=2u l=0.15u
+  ad=0p pd=0u as=0p ps=0u
M1052 VDD.t59 a_5227_411.t9 a_8357_1050.t4 pshort w=2u l=0.15u
+  ad=0p pd=0u as=0p ps=0u
M1053 a_6149_989.t1 CLK.t8 VDD.t6 pshort w=2u l=0.15u
+  ad=0p pd=0u as=0p ps=0u
M1054 a_14869_1051.t4 a_8483_411.t11 VDD.t31 pshort w=2u l=0.15u
+  ad=0p pd=0u as=0p ps=0u
M1055 a_13367_411.t3 a_13241_1050.t6 VDD.t76 pshort w=2u l=0.15u
+  ad=0p pd=0u as=0p ps=0u
M1056 VDD.t73 a_6149_989.t9 a_8483_411.t4 pshort w=2u l=0.15u
+  ad=0p pd=0u as=0p ps=0u
M1057 VDD.t85 a_13367_411.t11 a_14869_1051.t7 pshort w=2u l=0.15u
+  ad=0p pd=0u as=0p ps=0u
M1058 VDD.t41 CLK.t9 a_343_411.t2 pshort w=2u l=0.15u
+  ad=0p pd=0u as=0p ps=0u
M1059 GND a_10111_411.t11 a_13136_101.t0 nshort w=-1.605u l=1.765u
+  ad=0p pd=0u as=0p ps=0u
M1060 GND a_1905_1050.t8 a_2702_101.t0 nshort w=-1.605u l=1.765u
+  ad=0p pd=0u as=0p ps=0u
M1061 a_3473_1050.t0 a_343_411.t10 VDD.t15 pshort w=2u l=0.15u
+  ad=0p pd=0u as=0p ps=0u
M1062 VDD.t60 a_1905_1050.t7 a_1265_989.t4 pshort w=2u l=0.15u
+  ad=0p pd=0u as=0p ps=0u
M1063 a_8483_411.t3 SN.t7 VDD.t72 pshort w=2u l=0.15u
+  ad=0p pd=0u as=0p ps=0u
M1064 VDD.t68 SN.t8 a_13367_411.t1 pshort w=2u l=0.15u
+  ad=0p pd=0u as=0p ps=0u
M1065 a_10111_411.t1 a_9985_1050.t7 VDD.t30 pshort w=2u l=0.15u
+  ad=0p pd=0u as=0p ps=0u
M1066 GND a_13241_1050.t7 a_13781_103.t0 nshort w=-1.605u l=1.765u
+  ad=0p pd=0u as=0p ps=0u
M1067 GND a_5227_411.t10 a_8252_101.t0 nshort w=-1.605u l=1.765u
+  ad=0p pd=0u as=0p ps=0u
M1068 a_15533_1051.t6 a_8483_411.t12 a_14869_1051.t2 pshort w=2u l=0.15u
+  ad=0p pd=0u as=0p ps=0u
M1069 VDD.t52 a_10111_411.t9 a_9985_1050.t3 pshort w=2u l=0.15u
+  ad=0p pd=0u as=0p ps=0u
M1070 VDD.t70 SN.t9 a_11673_1050.t1 pshort w=2u l=0.15u
+  ad=0p pd=0u as=0p ps=0u
M1071 GND a_5101_1050.t9 a_5641_103.t0 nshort w=-1.605u l=1.765u
+  ad=0p pd=0u as=0p ps=0u
M1072 a_6149_989.t0 a_6789_1050.t7 VDD.t21 pshort w=2u l=0.15u
+  ad=0p pd=0u as=0p ps=0u
M1073 VDD.t43 a_3473_1050.t6 a_3599_411.t0 pshort w=2u l=0.15u
+  ad=0p pd=0u as=0p ps=0u
M1074 VDD.t88 a_1265_989.t10 a_3599_411.t6 pshort w=2u l=0.15u
+  ad=0p pd=0u as=0p ps=0u
M1075 GND a_8483_411.t13 a_14764_101.t0 nshort w=-1.605u l=1.765u
+  ad=0p pd=0u as=0p ps=0u
M1076 VDD.t13 a_1265_989.t11 a_343_411.t4 pshort w=2u l=0.15u
+  ad=0p pd=0u as=0p ps=0u
M1077 a_8483_411.t2 a_8357_1050.t7 VDD.t69 pshort w=2u l=0.15u
+  ad=0p pd=0u as=0p ps=0u
M1078 VDD.t90 a_11033_989.t11 a_13367_411.t5 pshort w=2u l=0.15u
+  ad=0p pd=0u as=0p ps=0u
M1079 VDD.t48 a_5101_1050.t7 a_5227_411.t3 pshort w=2u l=0.15u
+  ad=0p pd=0u as=0p ps=0u
M1080 a_15533_1051.t0 a_3599_411.t11 a_14869_1051.t0 pshort w=2u l=0.15u
+  ad=0p pd=0u as=0p ps=0u
M1081 a_8483_411.t6 a_6149_989.t10 VDD.t80 pshort w=2u l=0.15u
+  ad=0p pd=0u as=0p ps=0u
M1082 a_217_1050.t3 D.t4 VDD.t1 pshort w=2u l=0.15u
+  ad=0p pd=0u as=0p ps=0u
M1083 VDD.t11 D.t5 a_9985_1050.t0 pshort w=2u l=0.15u
+  ad=0p pd=0u as=0p ps=0u
M1084 a_1905_1050.t5 a_1265_989.t12 VDD.t45 pshort w=2u l=0.15u
+  ad=0p pd=0u as=0p ps=0u
M1085 a_6789_1050.t5 a_5101_1050.t8 VDD.t51 pshort w=2u l=0.15u
+  ad=0p pd=0u as=0p ps=0u
M1086 VDD.t38 a_9985_1050.t8 a_11673_1050.t2 pshort w=2u l=0.15u
+  ad=0p pd=0u as=0p ps=0u
M1087 GND a_5101_1050.t10 a_6603_103.t0 nshort w=-1.605u l=1.765u
+  ad=0p pd=0u as=0p ps=0u
M1088 QN.t5 a_13367_411.t12 a_15533_1051.t4 pshort w=2u l=0.15u
+  ad=0p pd=0u as=0p ps=0u
M1089 GND a_3473_1050.t7 a_4013_103.t0 nshort w=-1.605u l=1.765u
+  ad=0p pd=0u as=0p ps=0u
M1090 VDD.t66 SN.t12 a_3599_411.t2 pshort w=2u l=0.15u
+  ad=0p pd=0u as=0p ps=0u
M1091 VDD.t27 SN.t13 a_6789_1050.t4 pshort w=2u l=0.15u
+  ad=0p pd=0u as=0p ps=0u
M1092 QN a_13367_411.t13 a_14764_101.t0 nshort w=-1.605u l=1.765u
+  ad=0p pd=0u as=0p ps=0u
M1093 a_11033_989.t0 a_11673_1050.t9 VDD.t0 pshort w=2u l=0.15u
+  ad=0p pd=0u as=0p ps=0u
M1094 GND a_6789_1050.t9 a_7586_101.t0 nshort w=-1.605u l=1.765u
+  ad=0p pd=0u as=0p ps=0u
M1095 a_1905_1050.t0 SN.t14 VDD.t12 pshort w=2u l=0.15u
+  ad=0p pd=0u as=0p ps=0u
M1096 a_217_1050.t0 a_343_411.t12 VDD.t57 pshort w=2u l=0.15u
+  ad=0p pd=0u as=0p ps=0u
M1097 a_5101_1050.t1 a_5227_411.t11 VDD.t17 pshort w=2u l=0.15u
+  ad=0p pd=0u as=0p ps=0u
M1098 GND a_9985_1050.t10 a_10525_103.t0 nshort w=-1.605u l=1.765u
+  ad=0p pd=0u as=0p ps=0u
M1099 GND a_3599_411.t14 a_16096_101.t0 nshort w=-1.605u l=1.765u
+  ad=0p pd=0u as=0p ps=0u
M1100 GND D.t7 a_4996_101.t0 nshort w=-1.605u l=1.765u
+  ad=0p pd=0u as=0p ps=0u
M1101 a_6789_1050.t3 SN.t15 VDD.t35 pshort w=2u l=0.15u
+  ad=0p pd=0u as=0p ps=0u
M1102 QN.t0 a_3599_411.t13 a_15533_1051.t2 pshort w=2u l=0.15u
+  ad=0p pd=0u as=0p ps=0u
M1103 VDD.t44 a_9985_1050.t9 a_10111_411.t0 pshort w=2u l=0.15u
+  ad=0p pd=0u as=0p ps=0u
M1104 a_343_411.t0 a_217_1050.t9 VDD.t8 pshort w=2u l=0.15u
+  ad=0p pd=0u as=0p ps=0u
M1105 VDD.t33 a_8483_411.t14 a_8357_1050.t1 pshort w=2u l=0.15u
+  ad=0p pd=0u as=0p ps=0u
M1106 VDD.t79 a_6149_989.t11 a_6789_1050.t1 pshort w=2u l=0.15u
+  ad=0p pd=0u as=0p ps=0u
M1107 a_10111_411.t5 a_11033_989.t13 VDD.t58 pshort w=2u l=0.15u
+  ad=0p pd=0u as=0p ps=0u
M1108 VDD.t19 a_10111_411.t12 a_13241_1050.t0 pshort w=2u l=0.15u
+  ad=0p pd=0u as=0p ps=0u
M1109 VDD.t62 a_217_1050.t10 a_1905_1050.t3 pshort w=2u l=0.15u
+  ad=0p pd=0u as=0p ps=0u
M1110 a_8357_1050.t3 a_5227_411.t12 VDD.t49 pshort w=2u l=0.15u
+  ad=0p pd=0u as=0p ps=0u
M1111 VDD.t54 a_6789_1050.t8 a_6149_989.t4 pshort w=2u l=0.15u
+  ad=0p pd=0u as=0p ps=0u
M1112 a_11033_989.t3 CLK.t13 VDD.t83 pshort w=2u l=0.15u
+  ad=0p pd=0u as=0p ps=0u
M1113 a_5101_1050.t4 D.t6 VDD.t84 pshort w=2u l=0.15u
+  ad=0p pd=0u as=0p ps=0u
M1114 a_14869_1051.t6 a_13367_411.t14 VDD.t67 pshort w=2u l=0.15u
+  ad=0p pd=0u as=0p ps=0u
M1115 a_343_411.t1 CLK.t14 VDD.t93 pshort w=2u l=0.15u
+  ad=0p pd=0u as=0p ps=0u
M1116 GND a_9985_1050.t5 a_11487_103.t0 nshort w=-1.605u l=1.765u
+  ad=0p pd=0u as=0p ps=0u
M1117 a_9985_1050.t1 D.t8 VDD.t23 pshort w=2u l=0.15u
+  ad=0p pd=0u as=0p ps=0u
M1118 a_13367_411.t0 SN.t16 VDD.t25 pshort w=2u l=0.15u
+  ad=0p pd=0u as=0p ps=0u
M1119 a_1265_989.t0 a_1905_1050.t9 VDD.t18 pshort w=2u l=0.15u
+  ad=0p pd=0u as=0p ps=0u
M1120 VDD.t91 a_3599_411.t15 a_3473_1050.t4 pshort w=2u l=0.15u
+  ad=0p pd=0u as=0p ps=0u
M1121 VDD.t75 CLK.t15 a_10111_411.t2 pshort w=2u l=0.15u
+  ad=0p pd=0u as=0p ps=0u
M1122 a_11673_1050.t0 SN.t17 VDD.t71 pshort w=2u l=0.15u
+  ad=0p pd=0u as=0p ps=0u
M1123 VDD.t4 CLK.t17 a_1265_989.t2 pshort w=2u l=0.15u
+  ad=0p pd=0u as=0p ps=0u
M1124 VDD.t78 a_6149_989.t13 a_5227_411.t1 pshort w=2u l=0.15u
+  ad=0p pd=0u as=0p ps=0u
M1125 VDD.t26 a_13367_411.t15 a_13241_1050.t3 pshort w=2u l=0.15u
+  ad=0p pd=0u as=0p ps=0u
C0 VDD D 0.24fF
C1 VDD CLK 1.68fF
C2 QN VDD 0.29fF
C3 D CLK 0.39fF
C4 VDD SN 0.30fF
C5 D SN 9.38fF
C6 CLK SN 0.46fF
R0 a_8483_411.n8 a_8483_411.t8 512.525
R1 a_8483_411.n6 a_8483_411.t10 477.179
R2 a_8483_411.n11 a_8483_411.t14 472.359
R3 a_8483_411.n6 a_8483_411.t12 406.485
R4 a_8483_411.n11 a_8483_411.t7 384.527
R5 a_8483_411.n8 a_8483_411.t11 371.139
R6 a_8483_411.n7 a_8483_411.t9 363.924
R7 a_8483_411.n10 a_8483_411.t13 277.053
R8 a_8483_411.n12 a_8483_411.t15 241.172
R9 a_8483_411.n16 a_8483_411.n14 213.104
R10 a_8483_411.n14 a_8483_411.n5 170.799
R11 a_8483_411.n12 a_8483_411.n11 110.06
R12 a_8483_411.n9 a_8483_411.n7 101.359
R13 a_8483_411.n13 a_8483_411.n10 94.999
R14 a_8483_411.n10 a_8483_411.n9 80.444
R15 a_8483_411.n13 a_8483_411.n12 80.035
R16 a_8483_411.n4 a_8483_411.n3 79.232
R17 a_8483_411.n14 a_8483_411.n13 76
R18 a_8483_411.n9 a_8483_411.n8 71.88
R19 a_8483_411.n5 a_8483_411.n4 63.152
R20 a_8483_411.n17 a_8483_411.n0 55.263
R21 a_8483_411.n16 a_8483_411.n15 30
R22 a_8483_411.n17 a_8483_411.n16 23.684
R23 a_8483_411.n5 a_8483_411.n1 16.08
R24 a_8483_411.n4 a_8483_411.n2 16.08
R25 a_8483_411.n7 a_8483_411.n6 15.776
R26 a_8483_411.n1 a_8483_411.t4 14.282
R27 a_8483_411.n1 a_8483_411.t6 14.282
R28 a_8483_411.n2 a_8483_411.t0 14.282
R29 a_8483_411.n2 a_8483_411.t3 14.282
R30 a_8483_411.n3 a_8483_411.t1 14.282
R31 a_8483_411.n3 a_8483_411.t2 14.282
R32 VDD.n809 VDD.n807 144.705
R33 VDD.n890 VDD.n888 144.705
R34 VDD.n971 VDD.n969 144.705
R35 VDD.n1032 VDD.n1030 144.705
R36 VDD.n1093 VDD.n1091 144.705
R37 VDD.n1174 VDD.n1172 144.705
R38 VDD.n1235 VDD.n1233 144.705
R39 VDD.n1316 VDD.n1314 144.705
R40 VDD.n1397 VDD.n1395 144.705
R41 VDD.n698 VDD.n696 144.705
R42 VDD.n1458 VDD.n1456 144.705
R43 VDD.n617 VDD.n615 144.705
R44 VDD.n556 VDD.n554 144.705
R45 VDD.n475 VDD.n473 144.705
R46 VDD.n394 VDD.n392 144.705
R47 VDD.n333 VDD.n331 144.705
R48 VDD.n272 VDD.n270 144.705
R49 VDD.n191 VDD.n189 144.705
R50 VDD.n130 VDD.n128 144.705
R51 VDD.n76 VDD.n74 144.705
R52 VDD.n39 VDD.n38 76
R53 VDD.n43 VDD.n42 76
R54 VDD.n47 VDD.n46 76
R55 VDD.n51 VDD.n50 76
R56 VDD.n78 VDD.n77 76
R57 VDD.n82 VDD.n81 76
R58 VDD.n86 VDD.n85 76
R59 VDD.n90 VDD.n89 76
R60 VDD.n94 VDD.n93 76
R61 VDD.n98 VDD.n97 76
R62 VDD.n102 VDD.n101 76
R63 VDD.n106 VDD.n105 76
R64 VDD.n132 VDD.n131 76
R65 VDD.n137 VDD.n136 76
R66 VDD.n142 VDD.n141 76
R67 VDD.n148 VDD.n147 76
R68 VDD.n153 VDD.n152 76
R69 VDD.n158 VDD.n157 76
R70 VDD.n163 VDD.n162 76
R71 VDD.n167 VDD.n166 76
R72 VDD.n193 VDD.n192 76
R73 VDD.n197 VDD.n196 76
R74 VDD.n201 VDD.n200 76
R75 VDD.n206 VDD.n205 76
R76 VDD.n213 VDD.n212 76
R77 VDD.n218 VDD.n217 76
R78 VDD.n223 VDD.n222 76
R79 VDD.n230 VDD.n229 76
R80 VDD.n235 VDD.n234 76
R81 VDD.n240 VDD.n239 76
R82 VDD.n244 VDD.n243 76
R83 VDD.n248 VDD.n247 76
R84 VDD.n274 VDD.n273 76
R85 VDD.n279 VDD.n278 76
R86 VDD.n284 VDD.n283 76
R87 VDD.n290 VDD.n289 76
R88 VDD.n295 VDD.n294 76
R89 VDD.n300 VDD.n299 76
R90 VDD.n305 VDD.n304 76
R91 VDD.n309 VDD.n308 76
R92 VDD.n335 VDD.n334 76
R93 VDD.n340 VDD.n339 76
R94 VDD.n345 VDD.n344 76
R95 VDD.n351 VDD.n350 76
R96 VDD.n356 VDD.n355 76
R97 VDD.n361 VDD.n360 76
R98 VDD.n366 VDD.n365 76
R99 VDD.n370 VDD.n369 76
R100 VDD.n396 VDD.n395 76
R101 VDD.n400 VDD.n399 76
R102 VDD.n404 VDD.n403 76
R103 VDD.n409 VDD.n408 76
R104 VDD.n416 VDD.n415 76
R105 VDD.n421 VDD.n420 76
R106 VDD.n426 VDD.n425 76
R107 VDD.n433 VDD.n432 76
R108 VDD.n438 VDD.n437 76
R109 VDD.n443 VDD.n442 76
R110 VDD.n447 VDD.n446 76
R111 VDD.n451 VDD.n450 76
R112 VDD.n477 VDD.n476 76
R113 VDD.n481 VDD.n480 76
R114 VDD.n485 VDD.n484 76
R115 VDD.n490 VDD.n489 76
R116 VDD.n497 VDD.n496 76
R117 VDD.n502 VDD.n501 76
R118 VDD.n507 VDD.n506 76
R119 VDD.n514 VDD.n513 76
R120 VDD.n519 VDD.n518 76
R121 VDD.n524 VDD.n523 76
R122 VDD.n528 VDD.n527 76
R123 VDD.n532 VDD.n531 76
R124 VDD.n558 VDD.n557 76
R125 VDD.n563 VDD.n562 76
R126 VDD.n568 VDD.n567 76
R127 VDD.n574 VDD.n573 76
R128 VDD.n579 VDD.n578 76
R129 VDD.n584 VDD.n583 76
R130 VDD.n589 VDD.n588 76
R131 VDD.n593 VDD.n592 76
R132 VDD.n619 VDD.n618 76
R133 VDD.n623 VDD.n622 76
R134 VDD.n627 VDD.n626 76
R135 VDD.n632 VDD.n631 76
R136 VDD.n639 VDD.n638 76
R137 VDD.n644 VDD.n643 76
R138 VDD.n649 VDD.n648 76
R139 VDD.n656 VDD.n655 76
R140 VDD.n661 VDD.n660 76
R141 VDD.n666 VDD.n665 76
R142 VDD.n670 VDD.n669 76
R143 VDD.n674 VDD.n673 76
R144 VDD.n700 VDD.n699 76
R145 VDD.n705 VDD.n704 76
R146 VDD.n710 VDD.n709 76
R147 VDD.n716 VDD.n715 76
R148 VDD.n721 VDD.n720 76
R149 VDD.n726 VDD.n725 76
R150 VDD.n1465 VDD.n1464 76
R151 VDD.n1460 VDD.n1459 76
R152 VDD.n1434 VDD.n1433 76
R153 VDD.n1430 VDD.n1429 76
R154 VDD.n1425 VDD.n1424 76
R155 VDD.n1420 VDD.n1419 76
R156 VDD.n1414 VDD.n1413 76
R157 VDD.n1409 VDD.n1408 76
R158 VDD.n1404 VDD.n1403 76
R159 VDD.n1399 VDD.n1398 76
R160 VDD.n1373 VDD.n1372 76
R161 VDD.n1369 VDD.n1368 76
R162 VDD.n1365 VDD.n1364 76
R163 VDD.n1361 VDD.n1360 76
R164 VDD.n1356 VDD.n1355 76
R165 VDD.n1349 VDD.n1348 76
R166 VDD.n1344 VDD.n1343 76
R167 VDD.n1339 VDD.n1338 76
R168 VDD.n1332 VDD.n1331 76
R169 VDD.n1327 VDD.n1326 76
R170 VDD.n1322 VDD.n1321 76
R171 VDD.n1318 VDD.n1317 76
R172 VDD.n1292 VDD.n1291 76
R173 VDD.n1288 VDD.n1287 76
R174 VDD.n1284 VDD.n1283 76
R175 VDD.n1280 VDD.n1279 76
R176 VDD.n1275 VDD.n1274 76
R177 VDD.n1268 VDD.n1267 76
R178 VDD.n1263 VDD.n1262 76
R179 VDD.n1258 VDD.n1257 76
R180 VDD.n1251 VDD.n1250 76
R181 VDD.n1246 VDD.n1245 76
R182 VDD.n1241 VDD.n1240 76
R183 VDD.n1237 VDD.n1236 76
R184 VDD.n1211 VDD.n1210 76
R185 VDD.n1207 VDD.n1206 76
R186 VDD.n1202 VDD.n1201 76
R187 VDD.n1197 VDD.n1196 76
R188 VDD.n1191 VDD.n1190 76
R189 VDD.n1186 VDD.n1185 76
R190 VDD.n1181 VDD.n1180 76
R191 VDD.n1176 VDD.n1175 76
R192 VDD.n1150 VDD.n1149 76
R193 VDD.n1146 VDD.n1145 76
R194 VDD.n1142 VDD.n1141 76
R195 VDD.n1138 VDD.n1137 76
R196 VDD.n1133 VDD.n1132 76
R197 VDD.n1126 VDD.n1125 76
R198 VDD.n1121 VDD.n1120 76
R199 VDD.n1116 VDD.n1115 76
R200 VDD.n1109 VDD.n1108 76
R201 VDD.n1104 VDD.n1103 76
R202 VDD.n1099 VDD.n1098 76
R203 VDD.n1095 VDD.n1094 76
R204 VDD.n1069 VDD.n1068 76
R205 VDD.n1065 VDD.n1064 76
R206 VDD.n1060 VDD.n1059 76
R207 VDD.n1055 VDD.n1054 76
R208 VDD.n1049 VDD.n1048 76
R209 VDD.n1044 VDD.n1043 76
R210 VDD.n1039 VDD.n1038 76
R211 VDD.n1034 VDD.n1033 76
R212 VDD.n1008 VDD.n1007 76
R213 VDD.n1004 VDD.n1003 76
R214 VDD.n999 VDD.n998 76
R215 VDD.n994 VDD.n993 76
R216 VDD.n988 VDD.n987 76
R217 VDD.n983 VDD.n982 76
R218 VDD.n978 VDD.n977 76
R219 VDD.n973 VDD.n972 76
R220 VDD.n947 VDD.n946 76
R221 VDD.n943 VDD.n942 76
R222 VDD.n939 VDD.n938 76
R223 VDD.n935 VDD.n934 76
R224 VDD.n930 VDD.n929 76
R225 VDD.n923 VDD.n922 76
R226 VDD.n918 VDD.n917 76
R227 VDD.n913 VDD.n912 76
R228 VDD.n906 VDD.n905 76
R229 VDD.n901 VDD.n900 76
R230 VDD.n896 VDD.n895 76
R231 VDD.n892 VDD.n891 76
R232 VDD.n866 VDD.n865 76
R233 VDD.n862 VDD.n861 76
R234 VDD.n858 VDD.n857 76
R235 VDD.n854 VDD.n853 76
R236 VDD.n849 VDD.n848 76
R237 VDD.n842 VDD.n841 76
R238 VDD.n837 VDD.n836 76
R239 VDD.n832 VDD.n831 76
R240 VDD.n825 VDD.n824 76
R241 VDD.n820 VDD.n819 76
R242 VDD.n815 VDD.n814 76
R243 VDD.n811 VDD.n810 76
R244 VDD.n784 VDD.n783 76
R245 VDD.n780 VDD.n779 76
R246 VDD.n775 VDD.n774 76
R247 VDD.n770 VDD.n769 76
R248 VDD.n764 VDD.n763 76
R249 VDD.n759 VDD.n758 76
R250 VDD.n754 VDD.n753 76
R251 VDD.n749 VDD.n748 76
R252 VDD.n203 VDD.n202 64.064
R253 VDD.n406 VDD.n405 64.064
R254 VDD.n487 VDD.n486 64.064
R255 VDD.n629 VDD.n628 64.064
R256 VDD.n1358 VDD.n1357 64.064
R257 VDD.n1277 VDD.n1276 64.064
R258 VDD.n1135 VDD.n1134 64.064
R259 VDD.n932 VDD.n931 64.064
R260 VDD.n851 VDD.n850 64.064
R261 VDD.n232 VDD.n231 59.488
R262 VDD.n435 VDD.n434 59.488
R263 VDD.n516 VDD.n515 59.488
R264 VDD.n658 VDD.n657 59.488
R265 VDD.n1329 VDD.n1328 59.488
R266 VDD.n1248 VDD.n1247 59.488
R267 VDD.n1106 VDD.n1105 59.488
R268 VDD.n903 VDD.n902 59.488
R269 VDD.n822 VDD.n821 59.488
R270 VDD.n159 VDD.t31 55.465
R271 VDD.n133 VDD.t85 55.465
R272 VDD.n750 VDD.t1 55.106
R273 VDD.n816 VDD.t8 55.106
R274 VDD.n897 VDD.t53 55.106
R275 VDD.n974 VDD.t18 55.106
R276 VDD.n1035 VDD.t15 55.106
R277 VDD.n1100 VDD.t40 55.106
R278 VDD.n1177 VDD.t84 55.106
R279 VDD.n1242 VDD.t28 55.106
R280 VDD.n1323 VDD.t51 55.106
R281 VDD.n1400 VDD.t21 55.106
R282 VDD.n1461 VDD.t49 55.106
R283 VDD.n662 VDD.t69 55.106
R284 VDD.n585 VDD.t23 55.106
R285 VDD.n520 VDD.t30 55.106
R286 VDD.n439 VDD.t2 55.106
R287 VDD.n362 VDD.t0 55.106
R288 VDD.n301 VDD.t20 55.106
R289 VDD.n236 VDD.t76 55.106
R290 VDD.n857 VDD.t13 55.106
R291 VDD.n938 VDD.t14 55.106
R292 VDD.n1141 VDD.t88 55.106
R293 VDD.n1283 VDD.t78 55.106
R294 VDD.n1364 VDD.t79 55.106
R295 VDD.n626 VDD.t73 55.106
R296 VDD.n484 VDD.t36 55.106
R297 VDD.n403 VDD.t7 55.106
R298 VDD.n200 VDD.t90 55.106
R299 VDD.n776 VDD.t89 55.106
R300 VDD.n1000 VDD.t4 55.106
R301 VDD.n1061 VDD.t91 55.106
R302 VDD.n1203 VDD.t47 55.106
R303 VDD.n1426 VDD.t86 55.106
R304 VDD.n701 VDD.t33 55.106
R305 VDD.n559 VDD.t52 55.106
R306 VDD.n336 VDD.t5 55.106
R307 VDD.n275 VDD.t26 55.106
R308 VDD.n144 VDD.n143 41.183
R309 VDD.n766 VDD.n765 40.824
R310 VDD.n827 VDD.n826 40.824
R311 VDD.n847 VDD.n846 40.824
R312 VDD.n908 VDD.n907 40.824
R313 VDD.n928 VDD.n927 40.824
R314 VDD.n990 VDD.n989 40.824
R315 VDD.n1051 VDD.n1050 40.824
R316 VDD.n1111 VDD.n1110 40.824
R317 VDD.n1131 VDD.n1130 40.824
R318 VDD.n1193 VDD.n1192 40.824
R319 VDD.n1253 VDD.n1252 40.824
R320 VDD.n1273 VDD.n1272 40.824
R321 VDD.n1334 VDD.n1333 40.824
R322 VDD.n1354 VDD.n1353 40.824
R323 VDD.n1416 VDD.n1415 40.824
R324 VDD.n712 VDD.n711 40.824
R325 VDD.n651 VDD.n650 40.824
R326 VDD.n637 VDD.n636 40.824
R327 VDD.n570 VDD.n569 40.824
R328 VDD.n509 VDD.n508 40.824
R329 VDD.n495 VDD.n494 40.824
R330 VDD.n428 VDD.n427 40.824
R331 VDD.n414 VDD.n413 40.824
R332 VDD.n347 VDD.n346 40.824
R333 VDD.n286 VDD.n285 40.824
R334 VDD.n225 VDD.n224 40.824
R335 VDD.n211 VDD.n210 40.824
R336 VDD.n871 VDD.n870 36.774
R337 VDD.n952 VDD.n951 36.774
R338 VDD.n1013 VDD.n1012 36.774
R339 VDD.n1074 VDD.n1073 36.774
R340 VDD.n1155 VDD.n1154 36.774
R341 VDD.n1216 VDD.n1215 36.774
R342 VDD.n1297 VDD.n1296 36.774
R343 VDD.n1378 VDD.n1377 36.774
R344 VDD.n1439 VDD.n1438 36.774
R345 VDD.n679 VDD.n678 36.774
R346 VDD.n598 VDD.n597 36.774
R347 VDD.n537 VDD.n536 36.774
R348 VDD.n456 VDD.n455 36.774
R349 VDD.n375 VDD.n374 36.774
R350 VDD.n314 VDD.n313 36.774
R351 VDD.n253 VDD.n252 36.774
R352 VDD.n172 VDD.n171 36.774
R353 VDD.n111 VDD.n110 36.774
R354 VDD.n56 VDD.n55 36.774
R355 VDD.n800 VDD.n799 36.774
R356 VDD.n139 VDD.n138 36.608
R357 VDD.n281 VDD.n280 36.608
R358 VDD.n342 VDD.n341 36.608
R359 VDD.n565 VDD.n564 36.608
R360 VDD.n707 VDD.n706 36.608
R361 VDD.n1422 VDD.n1421 36.608
R362 VDD.n1199 VDD.n1198 36.608
R363 VDD.n1057 VDD.n1056 36.608
R364 VDD.n996 VDD.n995 36.608
R365 VDD.n772 VDD.n771 36.608
R366 VDD.n34 VDD.n33 34.942
R367 VDD.n155 VDD.n154 32.032
R368 VDD.n297 VDD.n296 32.032
R369 VDD.n358 VDD.n357 32.032
R370 VDD.n581 VDD.n580 32.032
R371 VDD.n723 VDD.n722 32.032
R372 VDD.n1406 VDD.n1405 32.032
R373 VDD.n1183 VDD.n1182 32.032
R374 VDD.n1041 VDD.n1040 32.032
R375 VDD.n980 VDD.n979 32.032
R376 VDD.n756 VDD.n755 32.032
R377 VDD.n208 VDD.n207 27.456
R378 VDD.n411 VDD.n410 27.456
R379 VDD.n492 VDD.n491 27.456
R380 VDD.n634 VDD.n633 27.456
R381 VDD.n1351 VDD.n1350 27.456
R382 VDD.n1270 VDD.n1269 27.456
R383 VDD.n1128 VDD.n1127 27.456
R384 VDD.n925 VDD.n924 27.456
R385 VDD.n844 VDD.n843 27.456
R386 VDD.n227 VDD.n226 22.88
R387 VDD.n430 VDD.n429 22.88
R388 VDD.n511 VDD.n510 22.88
R389 VDD.n653 VDD.n652 22.88
R390 VDD.n1336 VDD.n1335 22.88
R391 VDD.n1255 VDD.n1254 22.88
R392 VDD.n1113 VDD.n1112 22.88
R393 VDD.n910 VDD.n909 22.88
R394 VDD.n829 VDD.n828 22.88
R395 VDD.n748 VDD.n745 21.841
R396 VDD.n23 VDD.n20 21.841
R397 VDD.n765 VDD.t57 14.282
R398 VDD.n765 VDD.t22 14.282
R399 VDD.n826 VDD.t93 14.282
R400 VDD.n826 VDD.t37 14.282
R401 VDD.n846 VDD.t56 14.282
R402 VDD.n846 VDD.t41 14.282
R403 VDD.n907 VDD.t12 14.282
R404 VDD.n907 VDD.t62 14.282
R405 VDD.n927 VDD.t45 14.282
R406 VDD.n927 VDD.t63 14.282
R407 VDD.n989 VDD.t3 14.282
R408 VDD.n989 VDD.t60 14.282
R409 VDD.n1050 VDD.t50 14.282
R410 VDD.n1050 VDD.t46 14.282
R411 VDD.n1110 VDD.t65 14.282
R412 VDD.n1110 VDD.t43 14.282
R413 VDD.n1130 VDD.t55 14.282
R414 VDD.n1130 VDD.t66 14.282
R415 VDD.n1192 VDD.t17 14.282
R416 VDD.n1192 VDD.t9 14.282
R417 VDD.n1252 VDD.t92 14.282
R418 VDD.n1252 VDD.t48 14.282
R419 VDD.n1272 VDD.t81 14.282
R420 VDD.n1272 VDD.t42 14.282
R421 VDD.n1333 VDD.t35 14.282
R422 VDD.n1333 VDD.t24 14.282
R423 VDD.n1353 VDD.t82 14.282
R424 VDD.n1353 VDD.t27 14.282
R425 VDD.n1415 VDD.t6 14.282
R426 VDD.n1415 VDD.t54 14.282
R427 VDD.n711 VDD.t34 14.282
R428 VDD.n711 VDD.t59 14.282
R429 VDD.n650 VDD.t72 14.282
R430 VDD.n650 VDD.t64 14.282
R431 VDD.n636 VDD.t80 14.282
R432 VDD.n636 VDD.t10 14.282
R433 VDD.n569 VDD.t87 14.282
R434 VDD.n569 VDD.t11 14.282
R435 VDD.n508 VDD.t61 14.282
R436 VDD.n508 VDD.t44 14.282
R437 VDD.n494 VDD.t58 14.282
R438 VDD.n494 VDD.t75 14.282
R439 VDD.n427 VDD.t71 14.282
R440 VDD.n427 VDD.t38 14.282
R441 VDD.n413 VDD.t16 14.282
R442 VDD.n413 VDD.t70 14.282
R443 VDD.n346 VDD.t83 14.282
R444 VDD.n346 VDD.t29 14.282
R445 VDD.n285 VDD.t74 14.282
R446 VDD.n285 VDD.t19 14.282
R447 VDD.n224 VDD.t25 14.282
R448 VDD.n224 VDD.t77 14.282
R449 VDD.n210 VDD.t39 14.282
R450 VDD.n210 VDD.t68 14.282
R451 VDD.n143 VDD.t67 14.282
R452 VDD.n143 VDD.t32 14.282
R453 VDD.n745 VDD.n728 14.167
R454 VDD.n728 VDD.n727 14.167
R455 VDD.n886 VDD.n868 14.167
R456 VDD.n868 VDD.n867 14.167
R457 VDD.n967 VDD.n949 14.167
R458 VDD.n949 VDD.n948 14.167
R459 VDD.n1028 VDD.n1010 14.167
R460 VDD.n1010 VDD.n1009 14.167
R461 VDD.n1089 VDD.n1071 14.167
R462 VDD.n1071 VDD.n1070 14.167
R463 VDD.n1170 VDD.n1152 14.167
R464 VDD.n1152 VDD.n1151 14.167
R465 VDD.n1231 VDD.n1213 14.167
R466 VDD.n1213 VDD.n1212 14.167
R467 VDD.n1312 VDD.n1294 14.167
R468 VDD.n1294 VDD.n1293 14.167
R469 VDD.n1393 VDD.n1375 14.167
R470 VDD.n1375 VDD.n1374 14.167
R471 VDD.n1454 VDD.n1436 14.167
R472 VDD.n1436 VDD.n1435 14.167
R473 VDD.n694 VDD.n676 14.167
R474 VDD.n676 VDD.n675 14.167
R475 VDD.n613 VDD.n595 14.167
R476 VDD.n595 VDD.n594 14.167
R477 VDD.n552 VDD.n534 14.167
R478 VDD.n534 VDD.n533 14.167
R479 VDD.n471 VDD.n453 14.167
R480 VDD.n453 VDD.n452 14.167
R481 VDD.n390 VDD.n372 14.167
R482 VDD.n372 VDD.n371 14.167
R483 VDD.n329 VDD.n311 14.167
R484 VDD.n311 VDD.n310 14.167
R485 VDD.n268 VDD.n250 14.167
R486 VDD.n250 VDD.n249 14.167
R487 VDD.n187 VDD.n169 14.167
R488 VDD.n169 VDD.n168 14.167
R489 VDD.n126 VDD.n108 14.167
R490 VDD.n108 VDD.n107 14.167
R491 VDD.n72 VDD.n53 14.167
R492 VDD.n53 VDD.n52 14.167
R493 VDD.n805 VDD.n786 14.167
R494 VDD.n786 VDD.n785 14.167
R495 VDD.n20 VDD.n19 14.167
R496 VDD.n19 VDD.n17 14.167
R497 VDD.n32 VDD.n29 14.167
R498 VDD.n29 VDD.n28 14.167
R499 VDD.n77 VDD.n73 14.167
R500 VDD.n131 VDD.n127 14.167
R501 VDD.n192 VDD.n188 14.167
R502 VDD.n273 VDD.n269 14.167
R503 VDD.n334 VDD.n330 14.167
R504 VDD.n395 VDD.n391 14.167
R505 VDD.n476 VDD.n472 14.167
R506 VDD.n557 VDD.n553 14.167
R507 VDD.n618 VDD.n614 14.167
R508 VDD.n699 VDD.n695 14.167
R509 VDD.n1459 VDD.n1455 14.167
R510 VDD.n1398 VDD.n1394 14.167
R511 VDD.n1317 VDD.n1313 14.167
R512 VDD.n1236 VDD.n1232 14.167
R513 VDD.n1175 VDD.n1171 14.167
R514 VDD.n1094 VDD.n1090 14.167
R515 VDD.n1033 VDD.n1029 14.167
R516 VDD.n972 VDD.n968 14.167
R517 VDD.n891 VDD.n887 14.167
R518 VDD.n810 VDD.n806 14.167
R519 VDD.n220 VDD.n219 13.728
R520 VDD.n423 VDD.n422 13.728
R521 VDD.n504 VDD.n503 13.728
R522 VDD.n646 VDD.n645 13.728
R523 VDD.n1341 VDD.n1340 13.728
R524 VDD.n1260 VDD.n1259 13.728
R525 VDD.n1118 VDD.n1117 13.728
R526 VDD.n915 VDD.n914 13.728
R527 VDD.n834 VDD.n833 13.728
R528 VDD.n23 VDD.n22 13.653
R529 VDD.n22 VDD.n21 13.653
R530 VDD.n32 VDD.n31 13.653
R531 VDD.n31 VDD.n30 13.653
R532 VDD.n29 VDD.n25 13.653
R533 VDD.n25 VDD.n24 13.653
R534 VDD.n28 VDD.n27 13.653
R535 VDD.n27 VDD.n26 13.653
R536 VDD.n38 VDD.n37 13.653
R537 VDD.n37 VDD.n36 13.653
R538 VDD.n42 VDD.n41 13.653
R539 VDD.n41 VDD.n40 13.653
R540 VDD.n46 VDD.n45 13.653
R541 VDD.n45 VDD.n44 13.653
R542 VDD.n50 VDD.n49 13.653
R543 VDD.n49 VDD.n48 13.653
R544 VDD.n77 VDD.n76 13.653
R545 VDD.n76 VDD.n75 13.653
R546 VDD.n81 VDD.n80 13.653
R547 VDD.n80 VDD.n79 13.653
R548 VDD.n85 VDD.n84 13.653
R549 VDD.n84 VDD.n83 13.653
R550 VDD.n89 VDD.n88 13.653
R551 VDD.n88 VDD.n87 13.653
R552 VDD.n93 VDD.n92 13.653
R553 VDD.n92 VDD.n91 13.653
R554 VDD.n97 VDD.n96 13.653
R555 VDD.n96 VDD.n95 13.653
R556 VDD.n101 VDD.n100 13.653
R557 VDD.n100 VDD.n99 13.653
R558 VDD.n105 VDD.n104 13.653
R559 VDD.n104 VDD.n103 13.653
R560 VDD.n131 VDD.n130 13.653
R561 VDD.n130 VDD.n129 13.653
R562 VDD.n136 VDD.n135 13.653
R563 VDD.n135 VDD.n134 13.653
R564 VDD.n141 VDD.n140 13.653
R565 VDD.n140 VDD.n139 13.653
R566 VDD.n147 VDD.n146 13.653
R567 VDD.n146 VDD.n145 13.653
R568 VDD.n152 VDD.n151 13.653
R569 VDD.n151 VDD.n150 13.653
R570 VDD.n157 VDD.n156 13.653
R571 VDD.n156 VDD.n155 13.653
R572 VDD.n162 VDD.n161 13.653
R573 VDD.n161 VDD.n160 13.653
R574 VDD.n166 VDD.n165 13.653
R575 VDD.n165 VDD.n164 13.653
R576 VDD.n192 VDD.n191 13.653
R577 VDD.n191 VDD.n190 13.653
R578 VDD.n196 VDD.n195 13.653
R579 VDD.n195 VDD.n194 13.653
R580 VDD.n200 VDD.n199 13.653
R581 VDD.n199 VDD.n198 13.653
R582 VDD.n205 VDD.n204 13.653
R583 VDD.n204 VDD.n203 13.653
R584 VDD.n212 VDD.n209 13.653
R585 VDD.n209 VDD.n208 13.653
R586 VDD.n217 VDD.n216 13.653
R587 VDD.n216 VDD.n215 13.653
R588 VDD.n222 VDD.n221 13.653
R589 VDD.n221 VDD.n220 13.653
R590 VDD.n229 VDD.n228 13.653
R591 VDD.n228 VDD.n227 13.653
R592 VDD.n234 VDD.n233 13.653
R593 VDD.n233 VDD.n232 13.653
R594 VDD.n239 VDD.n238 13.653
R595 VDD.n238 VDD.n237 13.653
R596 VDD.n243 VDD.n242 13.653
R597 VDD.n242 VDD.n241 13.653
R598 VDD.n247 VDD.n246 13.653
R599 VDD.n246 VDD.n245 13.653
R600 VDD.n273 VDD.n272 13.653
R601 VDD.n272 VDD.n271 13.653
R602 VDD.n278 VDD.n277 13.653
R603 VDD.n277 VDD.n276 13.653
R604 VDD.n283 VDD.n282 13.653
R605 VDD.n282 VDD.n281 13.653
R606 VDD.n289 VDD.n288 13.653
R607 VDD.n288 VDD.n287 13.653
R608 VDD.n294 VDD.n293 13.653
R609 VDD.n293 VDD.n292 13.653
R610 VDD.n299 VDD.n298 13.653
R611 VDD.n298 VDD.n297 13.653
R612 VDD.n304 VDD.n303 13.653
R613 VDD.n303 VDD.n302 13.653
R614 VDD.n308 VDD.n307 13.653
R615 VDD.n307 VDD.n306 13.653
R616 VDD.n334 VDD.n333 13.653
R617 VDD.n333 VDD.n332 13.653
R618 VDD.n339 VDD.n338 13.653
R619 VDD.n338 VDD.n337 13.653
R620 VDD.n344 VDD.n343 13.653
R621 VDD.n343 VDD.n342 13.653
R622 VDD.n350 VDD.n349 13.653
R623 VDD.n349 VDD.n348 13.653
R624 VDD.n355 VDD.n354 13.653
R625 VDD.n354 VDD.n353 13.653
R626 VDD.n360 VDD.n359 13.653
R627 VDD.n359 VDD.n358 13.653
R628 VDD.n365 VDD.n364 13.653
R629 VDD.n364 VDD.n363 13.653
R630 VDD.n369 VDD.n368 13.653
R631 VDD.n368 VDD.n367 13.653
R632 VDD.n395 VDD.n394 13.653
R633 VDD.n394 VDD.n393 13.653