* SPICE3 file created from TMRDFFRNQNX1.ext - technology: sky130A

.subckt TMRDFFRNQNX1 QN D CLK RN VPB VNB
M1000 a_14511_943.t3 a_10507_159.t14 VPB.t61 pshort w=2u l=0.15u
+  ad=0p pd=0u as=0p ps=0u
M1001 a_9331_943.t7 a_9331_943.t6 VPB.t99 pshort w=2u l=0.15u
+  ad=0p pd=0u as=0p ps=0u
M1002 VNB a_9009_1004.t9 a_9806_73.t0 nshort w=-1.605u l=1.765u
+  ad=3.7611p pd=32.97u as=0p ps=0u
M1003 VPB.t38 RN a_9331_943.t10 pshort w=2u l=0.15u
+  ad=0p pd=0u as=0p ps=0u
M1004 VNB a_5779_943.t12 a_7216_73.t0 nshort w=-1.605u l=1.765u
+  ad=0p pd=0u as=0p ps=0u
M1005 VNB a_10507_159.t21 a_10451_75.t0 nshort w=-1.605u l=1.765u
+  ad=0p pd=0u as=0p ps=0u
M1006 a_5457_1004.t3 a_5779_943.t7 VPB.t71 pshort w=2u l=0.15u
+  ad=0p pd=0u as=0p ps=0u
M1007 a_5327_159.t2 RN VPB.t43 pshort w=2u l=0.15u
+  ad=0p pd=0u as=0p ps=0u
M1008 VPB.t1 a_147_159.t14 a_277_1004.t4 pshort w=2u l=0.15u
+  ad=0p pd=0u as=0p ps=0u
M1009 a_15757_1005.t5 a_4151_943.t5 a_16421_1005.t2 pshort w=2u l=0.15u
+  ad=0p pd=0u as=0p ps=0u
M1010 VPB.t59 a_10507_159.t15 a_10637_1004.t4 pshort w=2u l=0.15u
+  ad=0p pd=0u as=0p ps=0u
M1011 VPB.t24 a_9331_943.t19 a_10507_159.t3 pshort w=2u l=0.15u
+  ad=0p pd=0u as=0p ps=0u
M1012 VPB.t52 RN a_10507_159.t8 pshort w=2u l=0.15u
+  ad=0p pd=0u as=0p ps=0u
M1013 a_10507_159.t1 a_10637_1004.t7 VPB.t12 pshort w=2u l=0.15u
+  ad=0p pd=0u as=0p ps=0u
M1014 a_9331_943.t3 a_10637_1004.t8 VPB.t29 pshort w=2u l=0.15u
+  ad=0p pd=0u as=0p ps=0u
M1015 a_599_943.t6 D VPB.t80 pshort w=2u l=0.15u
+  ad=0p pd=0u as=0p ps=0u
M1016 a_16421_1005.t7 a_14511_943.t6 a_15932_181.t4 pshort w=2u l=0.15u
+  ad=0p pd=0u as=0p ps=0u
M1017 a_5327_159.t6 CLK VPB.t89 pshort w=2u l=0.15u
+  ad=0p pd=0u as=0p ps=0u
M1018 VPB.t16 a_599_943.t7 a_2141_1004.t4 pshort w=2u l=0.15u
+  ad=0p pd=0u as=0p ps=0u
M1019 a_9331_943.t8 a_9009_1004.t7 VPB.t35 pshort w=2u l=0.15u
+  ad=0p pd=0u as=0p ps=0u
M1020 VPB.t95 CLK a_277_1004.t6 pshort w=2u l=0.15u
+  ad=0p pd=0u as=0p ps=0u
M1021 VPB.t19 a_5457_1004.t7 a_9009_1004.t6 pshort w=2u l=0.15u
+  ad=0p pd=0u as=0p ps=0u
M1022 VPB.t82 a_277_1004.t8 a_147_159.t11 pshort w=2u l=0.15u
+  ad=0p pd=0u as=0p ps=0u
M1023 VPB.t8 a_5457_1004.t8 a_5779_943.t1 pshort w=2u l=0.15u
+  ad=0p pd=0u as=0p ps=0u
M1024 VPB.t54 RN a_5779_943.t3 pshort w=2u l=0.15u
+  ad=0p pd=0u as=0p ps=0u
M1025 VPB.t4 a_9331_943.t21 a_9009_1004.t1 pshort w=2u l=0.15u
+  ad=0p pd=0u as=0p ps=0u
M1026 VPB.t92 CLK a_10507_159.t13 pshort w=2u l=0.15u
+  ad=0p pd=0u as=0p ps=0u
M1027 VPB.t88 CLK a_10637_1004.t6 pshort w=2u l=0.15u
+  ad=0p pd=0u as=0p ps=0u
M1028 a_9331_943.t1 a_5327_159.t8 VPB.t26 pshort w=2u l=0.15u
+  ad=0p pd=0u as=0p ps=0u
M1029 VNB a_5457_1004.t11 a_8823_75.t0 nshort w=-1.605u l=1.765u
+  ad=0p pd=0u as=0p ps=0u
M1030 a_10507_159.t7 RN VPB.t51 pshort w=2u l=0.15u
+  ad=0p pd=0u as=0p ps=0u
M1031 a_9331_943.t18 D VPB.t76 pshort w=2u l=0.15u
+  ad=0p pd=0u as=0p ps=0u
M1032 a_599_943.t1 RN VPB.t47 pshort w=2u l=0.15u
+  ad=0p pd=0u as=0p ps=0u
M1033 a_147_159.t10 a_4151_943.t7 VPB.t72 pshort w=2u l=0.15u
+  ad=0p pd=0u as=0p ps=0u
M1034 VNB a_5457_1004.t12 a_6233_75.t0 nshort w=-1.605u l=1.765u
+  ad=0p pd=0u as=0p ps=0u
M1035 VPB.t68 a_14511_943.t7 a_15757_1005.t7 pshort w=2u l=0.15u
+  ad=0p pd=0u as=0p ps=0u
M1036 a_10637_1004.t3 a_10507_159.t16 VPB.t58 pshort w=2u l=0.15u
+  ad=0p pd=0u as=0p ps=0u
M1037 a_147_159.t13 CLK VPB.t85 pshort w=2u l=0.15u
+  ad=0p pd=0u as=0p ps=0u
M1038 a_4151_943.t3 a_147_159.t16 VPB.t74 pshort w=2u l=0.15u
+  ad=0p pd=0u as=0p ps=0u
M1039 a_9009_1004.t5 a_5457_1004.t9 VPB.t7 pshort w=2u l=0.15u
+  ad=0p pd=0u as=0p ps=0u
M1040 a_15757_1005.t1 a_9331_943.t23 VPB.t2 pshort w=2u l=0.15u
+  ad=0p pd=0u as=0p ps=0u
M1041 VPB.t63 a_10507_159.t17 a_14511_943.t2 pshort w=2u l=0.15u
+  ad=0p pd=0u as=0p ps=0u
M1042 VPB.t9 a_9331_943.t4 a_9331_943.t5 pshort w=2u l=0.15u
+  ad=0p pd=0u as=0p ps=0u
M1043 VNB a_147_159.t15 a_4626_73.t0 nshort w=-1.605u l=1.765u
+  ad=0p pd=0u as=0p ps=0u
M1044 VPB.t14 a_147_159.t17 a_2141_1004.t1 pshort w=2u l=0.15u
+  ad=0p pd=0u as=0p ps=0u
M1045 VPB.t17 a_599_943.t9 a_277_1004.t2 pshort w=2u l=0.15u
+  ad=0p pd=0u as=0p ps=0u
M1046 VNB a_147_159.t24 a_91_75.t0 nshort w=-1.605u l=1.765u
+  ad=0p pd=0u as=0p ps=0u
M1047 VPB.t77 D a_5779_943.t6 pshort w=2u l=0.15u
+  ad=0p pd=0u as=0p ps=0u
M1048 VPB.t48 RN a_9009_1004.t4 pshort w=2u l=0.15u
+  ad=0p pd=0u as=0p ps=0u
M1049 VNB a_599_943.t8 a_2036_73.t0 nshort w=-1.605u l=1.765u
+  ad=0p pd=0u as=0p ps=0u
M1050 VNB a_7321_1004.t7 a_7861_75.t0 nshort w=-1.605u l=1.765u
+  ad=0p pd=0u as=0p ps=0u
M1051 VPB.t73 a_5327_159.t10 a_5457_1004.t1 pshort w=2u l=0.15u
+  ad=0p pd=0u as=0p ps=0u
M1052 VPB.t66 a_7321_1004.t5 a_5327_159.t4 pshort w=2u l=0.15u
+  ad=0p pd=0u as=0p ps=0u
M1053 VPB.t33 a_2141_1004.t6 a_147_159.t3 pshort w=2u l=0.15u
+  ad=0p pd=0u as=0p ps=0u
M1054 a_10507_159.t10 a_14511_943.t8 VPB.t67 pshort w=2u l=0.15u
+  ad=0p pd=0u as=0p ps=0u
M1055 VNB a_5327_159.t14 a_5271_75.t0 nshort w=-1.605u l=1.765u
+  ad=0p pd=0u as=0p ps=0u
M1056 a_9331_943.t9 RN VPB.t40 pshort w=2u l=0.15u
+  ad=0p pd=0u as=0p ps=0u
M1057 a_147_159.t7 RN VPB.t42 pshort w=2u l=0.15u
+  ad=0p pd=0u as=0p ps=0u
M1058 a_4151_943.t2 a_147_159.t18 VPB.t0 pshort w=2u l=0.15u
+  ad=0p pd=0u as=0p ps=0u
M1059 a_7321_1004.t1 a_5327_159.t11 VPB.t3 pshort w=2u l=0.15u
+  ad=0p pd=0u as=0p ps=0u
M1060 a_15932_181.t1 a_4151_943.t8 a_16421_1005.t4 pshort w=2u l=0.15u
+  ad=0p pd=0u as=0p ps=0u
M1061 VPB.t5 a_9331_943.t26 a_10637_1004.t1 pshort w=2u l=0.15u
+  ad=0p pd=0u as=0p ps=0u
M1062 VNB a_9331_943.t24 a_15652_73.t0 nshort w=-1.605u l=1.765u
+  ad=0p pd=0u as=0p ps=0u
M1063 VNB a_10507_159.t18 a_14986_73.t0 nshort w=-1.605u l=1.765u
+  ad=0p pd=0u as=0p ps=0u
M1064 a_15757_1005.t6 a_14511_943.t9 VPB.t18 pshort w=2u l=0.15u
+  ad=0p pd=0u as=0p ps=0u
M1065 VPB.t62 a_10507_159.t19 a_14511_943.t1 pshort w=2u l=0.15u
+  ad=0p pd=0u as=0p ps=0u
M1066 VPB.t57 a_10507_159.t20 a_9331_943.t15 pshort w=2u l=0.15u
+  ad=0p pd=0u as=0p ps=0u
M1067 a_277_1004.t3 a_147_159.t19 VPB.t23 pshort w=2u l=0.15u
+  ad=0p pd=0u as=0p ps=0u
M1068 VPB.t56 a_9009_1004.t8 a_9331_943.t13 pshort w=2u l=0.15u
+  ad=0p pd=0u as=0p ps=0u
M1069 a_16421_1005.t5 a_4151_943.t10 a_15757_1005.t4 pshort w=2u l=0.15u
+  ad=0p pd=0u as=0p ps=0u
M1070 VNB a_9331_943.t20 a_13041_75.t0 nshort w=-1.605u l=1.765u
+  ad=0p pd=0u as=0p ps=0u
M1071 a_10507_159.t2 a_9331_943.t27 VPB.t22 pshort w=2u l=0.15u
+  ad=0p pd=0u as=0p ps=0u
M1072 a_10507_159.t6 RN VPB.t50 pshort w=2u l=0.15u
+  ad=0p pd=0u as=0p ps=0u
M1073 a_10637_1004.t0 a_9331_943.t28 VPB.t75 pshort w=2u l=0.15u
+  ad=0p pd=0u as=0p ps=0u
M1074 VNB a_277_1004.t7 a_3643_75.t0 nshort w=-1.605u l=1.765u
+  ad=0p pd=0u as=0p ps=0u
M1075 a_7321_1004.t4 a_5779_943.t8 VPB.t11 pshort w=2u l=0.15u
+  ad=0p pd=0u as=0p ps=0u
M1076 VPB.t83 a_277_1004.t10 a_599_943.t4 pshort w=2u l=0.15u
+  ad=0p pd=0u as=0p ps=0u
M1077 a_15932_181.t3 a_14511_943.t10 a_16421_1005.t6 pshort w=2u l=0.15u
+  ad=0p pd=0u as=0p ps=0u
M1078 VPB.t46 RN a_599_943.t0 pshort w=2u l=0.15u
+  ad=0p pd=0u as=0p ps=0u
M1079 VPB.t27 a_4151_943.t11 a_147_159.t1 pshort w=2u l=0.15u
+  ad=0p pd=0u as=0p ps=0u
M1080 VNB a_4151_943.t9 a_16984_73.t0 nshort w=-1.605u l=1.765u
+  ad=0p pd=0u as=0p ps=0u
M1081 VPB.t21 a_5779_943.t9 a_5457_1004.t2 pshort w=2u l=0.15u
+  ad=0p pd=0u as=0p ps=0u
M1082 VPB.t37 RN a_5327_159.t1 pshort w=2u l=0.15u
+  ad=0p pd=0u as=0p ps=0u
M1083 a_16421_1005.t0 a_9331_943.t30 a_15757_1005.t3 pshort w=2u l=0.15u
+  ad=0p pd=0u as=0p ps=0u
M1084 a_2141_1004.t3 a_599_943.t10 VPB.t96 pshort w=2u l=0.15u
+  ad=0p pd=0u as=0p ps=0u
M1085 a_277_1004.t5 CLK VPB.t94 pshort w=2u l=0.15u
+  ad=0p pd=0u as=0p ps=0u
M1086 a_147_159.t2 a_277_1004.t11 VPB.t30 pshort w=2u l=0.15u
+  ad=0p pd=0u as=0p ps=0u
M1087 a_5779_943.t0 a_5457_1004.t10 VPB.t6 pshort w=2u l=0.15u
+  ad=0p pd=0u as=0p ps=0u
M1088 a_10507_159.t12 CLK VPB.t91 pshort w=2u l=0.15u
+  ad=0p pd=0u as=0p ps=0u
M1089 a_10637_1004.t5 CLK VPB.t93 pshort w=2u l=0.15u
+  ad=0p pd=0u as=0p ps=0u
M1090 VNB a_10637_1004.t9 a_14003_75.t0 nshort w=-1.605u l=1.765u
+  ad=0p pd=0u as=0p ps=0u
M1091 VNB a_2141_1004.t5 a_2681_75.t0 nshort w=-1.605u l=1.765u
+  ad=0p pd=0u as=0p ps=0u
M1092 VPB.t34 a_10637_1004.t11 a_10507_159.t4 pshort w=2u l=0.15u
+  ad=0p pd=0u as=0p ps=0u
M1093 VPB.t25 a_10637_1004.t12 a_9331_943.t0 pshort w=2u l=0.15u
+  ad=0p pd=0u as=0p ps=0u
M1094 VPB.t79 D a_599_943.t5 pshort w=2u l=0.15u
+  ad=0p pd=0u as=0p ps=0u
M1095 VPB.t39 RN a_147_159.t6 pshort w=2u l=0.15u
+  ad=0p pd=0u as=0p ps=0u
M1096 VNB a_9331_943.t29 a_12396_73.t0 nshort w=-1.605u l=1.765u
+  ad=0p pd=0u as=0p ps=0u
M1097 a_599_943.t3 a_277_1004.t12 VPB.t28 pshort w=2u l=0.15u
+  ad=0p pd=0u as=0p ps=0u
M1098 VPB.t86 CLK a_5457_1004.t6 pshort w=2u l=0.15u
+  ad=0p pd=0u as=0p ps=0u
M1099 VPB.t90 CLK a_5327_159.t5 pshort w=2u l=0.15u
+  ad=0p pd=0u as=0p ps=0u
M1100 a_2141_1004.t0 a_147_159.t22 VPB.t97 pshort w=2u l=0.15u
+  ad=0p pd=0u as=0p ps=0u
M1101 a_277_1004.t0 a_599_943.t11 VPB.t15 pshort w=2u l=0.15u
+  ad=0p pd=0u as=0p ps=0u
M1102 a_147_159.t5 RN VPB.t41 pshort w=2u l=0.15u
+  ad=0p pd=0u as=0p ps=0u
M1103 a_5779_943.t5 D VPB.t81 pshort w=2u l=0.15u
+  ad=0p pd=0u as=0p ps=0u
M1104 a_9009_1004.t3 RN VPB.t45 pshort w=2u l=0.15u
+  ad=0p pd=0u as=0p ps=0u
M1105 a_5327_159.t0 a_7321_1004.t6 VPB.t36 pshort w=2u l=0.15u
+  ad=0p pd=0u as=0p ps=0u
M1106 VPB.t55 a_5327_159.t12 a_9331_943.t12 pshort w=2u l=0.15u
+  ad=0p pd=0u as=0p ps=0u
M1107 a_147_159.t9 a_2141_1004.t7 VPB.t65 pshort w=2u l=0.15u
+  ad=0p pd=0u as=0p ps=0u
M1108 a_5457_1004.t0 a_5327_159.t13 VPB.t10 pshort w=2u l=0.15u
+  ad=0p pd=0u as=0p ps=0u
M1109 VPB.t49 RN a_10507_159.t5 pshort w=2u l=0.15u
+  ad=0p pd=0u as=0p ps=0u
M1110 VPB.t78 D a_9331_943.t17 pshort w=2u l=0.15u
+  ad=0p pd=0u as=0p ps=0u
M1111 VNB a_277_1004.t9 a_1053_75.t0 nshort w=-1.605u l=1.765u
+  ad=0p pd=0u as=0p ps=0u
M1112 VPB.t84 CLK a_147_159.t12 pshort w=2u l=0.15u
+  ad=0p pd=0u as=0p ps=0u
M1113 VPB.t20 a_5779_943.t10 a_7321_1004.t3 pshort w=2u l=0.15u
+  ad=0p pd=0u as=0p ps=0u
M1114 VPB.t70 a_147_159.t23 a_4151_943.t1 pshort w=2u l=0.15u
+  ad=0p pd=0u as=0p ps=0u
M1115 VPB.t13 a_9331_943.t32 a_15757_1005.t0 pshort w=2u l=0.15u
+  ad=0p pd=0u as=0p ps=0u
M1116 a_14511_943.t0 a_10507_159.t23 VPB.t64 pshort w=2u l=0.15u
+  ad=0p pd=0u as=0p ps=0u
M1117 a_9331_943.t14 a_10507_159.t24 VPB.t60 pshort w=2u l=0.15u
+  ad=0p pd=0u as=0p ps=0u
M1118 VNB a_9331_943.t31 a_16318_73.t0 nshort w=-1.605u l=1.765u
+  ad=0p pd=0u as=0p ps=0u
M1119 a_9009_1004.t0 a_9331_943.t33 VPB.t31 pshort w=2u l=0.15u
+  ad=0p pd=0u as=0p ps=0u
M1120 a_5779_943.t2 RN VPB.t53 pshort w=2u l=0.15u
+  ad=0p pd=0u as=0p ps=0u
M1121 VNB a_10637_1004.t10 a_11413_75.t0 nshort w=-1.605u l=1.765u
+  ad=0p pd=0u as=0p ps=0u
M1122 a_5457_1004.t5 CLK VPB.t87 pshort w=2u l=0.15u
+  ad=0p pd=0u as=0p ps=0u
M1123 a_15757_1005.t2 a_9331_943.t34 a_16421_1005.t1 pshort w=2u l=0.15u
+  ad=0p pd=0u as=0p ps=0u
M1124 VPB.t69 a_14511_943.t13 a_10507_159.t11 pshort w=2u l=0.15u
+  ad=0p pd=0u as=0p ps=0u
M1125 VPB.t44 RN a_147_159.t4 pshort w=2u l=0.15u
+  ad=0p pd=0u as=0p ps=0u
M1126 VPB.t98 a_147_159.t25 a_4151_943.t0 pshort w=2u l=0.15u
+  ad=0p pd=0u as=0p ps=0u
M1127 VPB.t32 a_5327_159.t15 a_7321_1004.t0 pshort w=2u l=0.15u
+  ad=0p pd=0u as=0p ps=0u
M1128 a_16421_1005.t3 a_4151_943.t13 a_15932_181.t0 pshort w=2u l=0.15u
+  ad=0p pd=0u as=0p ps=0u
C0 D CLK 1.65fF
C1 D RN 12.41fF
C2 CLK RN 1.02fF
C3 VPB D 0.15fF
C4 VPB CLK 3.49fF
C5 VPB RN 0.50fF
R0 a_10507_159.n23 a_10507_159.t15 512.525
R1 a_10507_159.n8 a_10507_159.t17 480.392
R2 a_10507_159.n21 a_10507_159.t20 472.359
R3 a_10507_159.n6 a_10507_159.t19 472.359
R4 a_10507_159.n8 a_10507_159.t14 403.272
R5 a_10507_159.n21 a_10507_159.t24 384.527
R6 a_10507_159.n6 a_10507_159.t23 384.527
R7 a_10507_159.n23 a_10507_159.t16 371.139
R8 a_10507_159.n24 a_10507_159.t21 324.268
R9 a_10507_159.n9 a_10507_159.t18 320.08
R10 a_10507_159.n22 a_10507_159.t25 277.772
R11 a_10507_159.n7 a_10507_159.t22 277.772
R12 a_10507_159.n20 a_10507_159.n19 249.704
R13 a_10507_159.n30 a_10507_159.n28 249.704
R14 a_10507_159.n20 a_10507_159.n15 127.74
R15 a_10507_159.n28 a_10507_159.n5 127.74
R16 a_10507_159.n24 a_10507_159.n23 119.654
R17 a_10507_159.n25 a_10507_159.n24 83.572
R18 a_10507_159.n4 a_10507_159.n3 79.232
R19 a_10507_159.n14 a_10507_159.n13 79.232
R20 a_10507_159.n10 a_10507_159.n7 76.499
R21 a_10507_159.n25 a_10507_159.n22 76
R22 a_10507_159.n26 a_10507_159.n20 76
R23 a_10507_159.n10 a_10507_159.n9 76
R24 a_10507_159.n28 a_10507_159.n27 76
R25 a_10507_159.n22 a_10507_159.n21 67.001
R26 a_10507_159.n7 a_10507_159.n6 67.001
R27 a_10507_159.n15 a_10507_159.n14 63.152
R28 a_10507_159.n5 a_10507_159.n4 63.152
R29 a_10507_159.n9 a_10507_159.n8 55.388
R30 a_10507_159.n31 a_10507_159.n0 55.263
R31 a_10507_159.n19 a_10507_159.n18 30
R32 a_10507_159.n30 a_10507_159.n29 30
R33 a_10507_159.n17 a_10507_159.n16 24.383
R34 a_10507_159.n19 a_10507_159.n17 23.684
R35 a_10507_159.n31 a_10507_159.n30 23.684
R36 a_10507_159.n15 a_10507_159.n11 16.08
R37 a_10507_159.n14 a_10507_159.n12 16.08
R38 a_10507_159.n5 a_10507_159.n1 16.08
R39 a_10507_159.n4 a_10507_159.n2 16.08
R40 a_10507_159.n11 a_10507_159.t8 14.282
R41 a_10507_159.n11 a_10507_159.t6 14.282
R42 a_10507_159.n12 a_10507_159.t13 14.282
R43 a_10507_159.n12 a_10507_159.t12 14.282
R44 a_10507_159.n13 a_10507_159.t3 14.282
R45 a_10507_159.n13 a_10507_159.t2 14.282
R46 a_10507_159.n1 a_10507_159.t11 14.282
R47 a_10507_159.n1 a_10507_159.t10 14.282
R48 a_10507_159.n2 a_10507_159.t5 14.282
R49 a_10507_159.n2 a_10507_159.t7 14.282
R50 a_10507_159.n3 a_10507_159.t4 14.282
R51 a_10507_159.n3 a_10507_159.t1 14.282
R52 a_10507_159.n26 a_10507_159.n25 4.035
R53 a_10507_159.n27 a_10507_159.n26 3.491
R54 a_10507_159.n27 a_10507_159.n10 1.315
R55 VPB VPB.n1562 126.832
R56 VPB.n40 VPB.n38 94.117
R57 VPB.n1484 VPB.n1482 94.117
R58 VPB.n1421 VPB.n1419 94.117
R59 VPB.n1338 VPB.n1336 94.117
R60 VPB.n1255 VPB.n1253 94.117
R61 VPB.n1192 VPB.n1190 94.117
R62 VPB.n1109 VPB.n1107 94.117
R63 VPB.n1026 VPB.n1024 94.117
R64 VPB.n963 VPB.n961 94.117
R65 VPB.n880 VPB.n878 94.117
R66 VPB.n129 VPB.n127 94.117
R67 VPB.n823 VPB.n821 94.117
R68 VPB.n740 VPB.n738 94.117
R69 VPB.n657 VPB.n655 94.117
R70 VPB.n594 VPB.n592 94.117
R71 VPB.n511 VPB.n509 94.117
R72 VPB.n428 VPB.n426 94.117
R73 VPB.n365 VPB.n363 94.117
R74 VPB.n302 VPB.n300 94.117
R75 VPB.n247 VPB.n245 94.117
R76 VPB.n441 VPB.n440 80.104
R77 VPB.n524 VPB.n523 80.104
R78 VPB.n670 VPB.n669 80.104
R79 VPB.n753 VPB.n752 80.104
R80 VPB.n139 VPB.n138 80.104
R81 VPB.n893 VPB.n892 80.104
R82 VPB.n1039 VPB.n1038 80.104
R83 VPB.n1122 VPB.n1121 80.104
R84 VPB.n1268 VPB.n1267 80.104
R85 VPB.n1351 VPB.n1350 80.104
R86 VPB.n1497 VPB.n1496 80.104
R87 VPB.n50 VPB.n49 80.104
R88 VPB.n210 VPB.n209 76
R89 VPB.n214 VPB.n213 76
R90 VPB.n218 VPB.n217 76
R91 VPB.n222 VPB.n221 76
R92 VPB.n249 VPB.n248 76
R93 VPB.n253 VPB.n252 76
R94 VPB.n257 VPB.n256 76
R95 VPB.n261 VPB.n260 76
R96 VPB.n265 VPB.n264 76
R97 VPB.n269 VPB.n268 76
R98 VPB.n273 VPB.n272 76
R99 VPB.n277 VPB.n276 76
R100 VPB.n304 VPB.n303 76
R101 VPB.n309 VPB.n308 76
R102 VPB.n314 VPB.n313 76
R103 VPB.n321 VPB.n320 76
R104 VPB.n326 VPB.n325 76
R105 VPB.n331 VPB.n330 76
R106 VPB.n336 VPB.n335 76
R107 VPB.n340 VPB.n339 76
R108 VPB.n367 VPB.n366 76
R109 VPB.n372 VPB.n371 76
R110 VPB.n377 VPB.n376 76
R111 VPB.n384 VPB.n383 76
R112 VPB.n389 VPB.n388 76
R113 VPB.n394 VPB.n393 76
R114 VPB.n399 VPB.n398 76
R115 VPB.n403 VPB.n402 76
R116 VPB.n430 VPB.n429 76
R117 VPB.n434 VPB.n433 76
R118 VPB.n439 VPB.n438 76
R119 VPB.n444 VPB.n443 76
R120 VPB.n451 VPB.n450 76
R121 VPB.n456 VPB.n455 76
R122 VPB.n461 VPB.n460 76
R123 VPB.n468 VPB.n467 76
R124 VPB.n473 VPB.n472 76
R125 VPB.n478 VPB.n477 76
R126 VPB.n482 VPB.n481 76
R127 VPB.n486 VPB.n485 76
R128 VPB.n513 VPB.n512 76
R129 VPB.n517 VPB.n516 76
R130 VPB.n522 VPB.n521 76
R131 VPB.n527 VPB.n526 76
R132 VPB.n534 VPB.n533 76
R133 VPB.n539 VPB.n538 76
R134 VPB.n544 VPB.n543 76
R135 VPB.n551 VPB.n550 76
R136 VPB.n556 VPB.n555 76
R137 VPB.n561 VPB.n560 76
R138 VPB.n565 VPB.n564 76
R139 VPB.n569 VPB.n568 76
R140 VPB.n596 VPB.n595 76
R141 VPB.n601 VPB.n600 76
R142 VPB.n606 VPB.n605 76
R143 VPB.n613 VPB.n612 76
R144 VPB.n618 VPB.n617 76
R145 VPB.n623 VPB.n622 76
R146 VPB.n628 VPB.n627 76
R147 VPB.n632 VPB.n631 76
R148 VPB.n659 VPB.n658 76
R149 VPB.n663 VPB.n662 76
R150 VPB.n668 VPB.n667 76
R151 VPB.n673 VPB.n672 76
R152 VPB.n680 VPB.n679 76
R153 VPB.n685 VPB.n684 76
R154 VPB.n690 VPB.n689 76
R155 VPB.n697 VPB.n696 76
R156 VPB.n702 VPB.n701 76
R157 VPB.n707 VPB.n706 76
R158 VPB.n711 VPB.n710 76
R159 VPB.n715 VPB.n714 76
R160 VPB.n742 VPB.n741 76
R161 VPB.n746 VPB.n745 76
R162 VPB.n751 VPB.n750 76
R163 VPB.n756 VPB.n755 76
R164 VPB.n763 VPB.n762 76
R165 VPB.n768 VPB.n767 76
R166 VPB.n773 VPB.n772 76
R167 VPB.n780 VPB.n779 76
R168 VPB.n785 VPB.n784 76
R169 VPB.n790 VPB.n789 76
R170 VPB.n794 VPB.n793 76
R171 VPB.n798 VPB.n797 76
R172 VPB.n825 VPB.n824 76
R173 VPB.n830 VPB.n829 76
R174 VPB.n835 VPB.n834 76
R175 VPB.n842 VPB.n841 76
R176 VPB.n847 VPB.n846 76
R177 VPB.n852 VPB.n851 76
R178 VPB.n857 VPB.n856 76
R179 VPB.n861 VPB.n860 76
R180 VPB.n876 VPB.n873 76
R181 VPB.n882 VPB.n881 76
R182 VPB.n886 VPB.n885 76
R183 VPB.n891 VPB.n890 76
R184 VPB.n896 VPB.n895 76
R185 VPB.n903 VPB.n902 76
R186 VPB.n908 VPB.n907 76
R187 VPB.n913 VPB.n912 76
R188 VPB.n920 VPB.n919 76
R189 VPB.n925 VPB.n924 76
R190 VPB.n930 VPB.n929 76
R191 VPB.n934 VPB.n933 76
R192 VPB.n938 VPB.n937 76
R193 VPB.n965 VPB.n964 76
R194 VPB.n970 VPB.n969 76
R195 VPB.n975 VPB.n974 76
R196 VPB.n982 VPB.n981 76
R197 VPB.n987 VPB.n986 76
R198 VPB.n992 VPB.n991 76
R199 VPB.n997 VPB.n996 76
R200 VPB.n1001 VPB.n1000 76
R201 VPB.n1028 VPB.n1027 76
R202 VPB.n1032 VPB.n1031 76
R203 VPB.n1037 VPB.n1036 76
R204 VPB.n1042 VPB.n1041 76
R205 VPB.n1049 VPB.n1048 76
R206 VPB.n1054 VPB.n1053 76
R207 VPB.n1059 VPB.n1058 76
R208 VPB.n1066 VPB.n1065 76
R209 VPB.n1071 VPB.n1070 76
R210 VPB.n1076 VPB.n1075 76
R211 VPB.n1080 VPB.n1079 76
R212 VPB.n1084 VPB.n1083 76
R213 VPB.n1111 VPB.n1110 76
R214 VPB.n1115 VPB.n1114 76
R215 VPB.n1120 VPB.n1119 76
R216 VPB.n1125 VPB.n1124 76
R217 VPB.n1132 VPB.n1131 76
R218 VPB.n1137 VPB.n1136 76
R219 VPB.n1142 VPB.n1141 76
R220 VPB.n1149 VPB.n1148 76
R221 VPB.n1154 VPB.n1153 76
R222 VPB.n1159 VPB.n1158 76
R223 VPB.n1163 VPB.n1162 76
R224 VPB.n1167 VPB.n1166 76
R225 VPB.n1194 VPB.n1193 76
R226 VPB.n1199 VPB.n1198 76
R227 VPB.n1204 VPB.n1203 76
R228 VPB.n1211 VPB.n1210 76
R229 VPB.n1216 VPB.n1215 76
R230 VPB.n1221 VPB.n1220 76
R231 VPB.n1226 VPB.n1225 76
R232 VPB.n1230 VPB.n1229 76
R233 VPB.n1257 VPB.n1256 76
R234 VPB.n1261 VPB.n1260 76
R235 VPB.n1266 VPB.n1265 76
R236 VPB.n1271 VPB.n1270 76
R237 VPB.n1278 VPB.n1277 76
R238 VPB.n1283 VPB.n1282 76
R239 VPB.n1288 VPB.n1287 76
R240 VPB.n1295 VPB.n1294 76
R241 VPB.n1300 VPB.n1299 76
R242 VPB.n1305 VPB.n1304 76
R243 VPB.n1309 VPB.n1308 76
R244 VPB.n1313 VPB.n1312 76
R245 VPB.n1340 VPB.n1339 76
R246 VPB.n1344 VPB.n1343 76
R247 VPB.n1349 VPB.n1348 76
R248 VPB.n1354 VPB.n1353 76
R249 VPB.n1361 VPB.n1360 76
R250 VPB.n1366 VPB.n1365 76
R251 VPB.n1371 VPB.n1370 76
R252 VPB.n1378 VPB.n1377 76
R253 VPB.n1383 VPB.n1382 76
R254 VPB.n1388 VPB.n1387 76
R255 VPB.n1392 VPB.n1391 76
R256 VPB.n1396 VPB.n1395 76
R257 VPB.n1423 VPB.n1422 76
R258 VPB.n1428 VPB.n1427 76
R259 VPB.n1433 VPB.n1432 76
R260 VPB.n1440 VPB.n1439 76
R261 VPB.n1445 VPB.n1444 76
R262 VPB.n1450 VPB.n1449 76
R263 VPB.n1455 VPB.n1454 76
R264 VPB.n1459 VPB.n1458 76
R265 VPB.n1486 VPB.n1485 76
R266 VPB.n1490 VPB.n1489 76
R267 VPB.n1495 VPB.n1494 76
R268 VPB.n1500 VPB.n1499 76
R269 VPB.n1507 VPB.n1506 76
R270 VPB.n1512 VPB.n1511 76
R271 VPB.n1517 VPB.n1516 76
R272 VPB.n1524 VPB.n1523 76
R273 VPB.n1529 VPB.n1528 76
R274 VPB.n1534 VPB.n1533 76
R275 VPB.n1538 VPB.n1537 76
R276 VPB.n1542 VPB.n1541 76
R277 VPB.n1555 VPB.n1554 76
R278 VPB.n470 VPB.n469 75.654
R279 VPB.n553 VPB.n552 75.654
R280 VPB.n699 VPB.n698 75.654
R281 VPB.n782 VPB.n781 75.654
R282 VPB.n161 VPB.n160 75.654
R283 VPB.n922 VPB.n921 75.654
R284 VPB.n1068 VPB.n1067 75.654
R285 VPB.n1151 VPB.n1150 75.654
R286 VPB.n1297 VPB.n1296 75.654
R287 VPB.n1380 VPB.n1379 75.654
R288 VPB.n1526 VPB.n1525 75.654
R289 VPB.n72 VPB.n71 75.654
R290 VPB.n22 VPB.n21 61.764
R291 VPB.n1466 VPB.n1465 61.764
R292 VPB.n1403 VPB.n1402 61.764
R293 VPB.n1320 VPB.n1319 61.764
R294 VPB.n1237 VPB.n1236 61.764
R295 VPB.n1174 VPB.n1173 61.764
R296 VPB.n1091 VPB.n1090 61.764
R297 VPB.n1008 VPB.n1007 61.764
R298 VPB.n945 VPB.n944 61.764
R299 VPB.n88 VPB.n87 61.764
R300 VPB.n111 VPB.n110 61.764
R301 VPB.n805 VPB.n804 61.764
R302 VPB.n722 VPB.n721 61.764
R303 VPB.n639 VPB.n638 61.764
R304 VPB.n576 VPB.n575 61.764
R305 VPB.n493 VPB.n492 61.764
R306 VPB.n410 VPB.n409 61.764
R307 VPB.n347 VPB.n346 61.764
R308 VPB.n284 VPB.n283 61.764
R309 VPB.n229 VPB.n228 61.764
R310 VPB.n332 VPB.t2 55.465
R311 VPB.n305 VPB.t68 55.465
R312 VPB.n78 VPB.t23 55.106
R313 VPB.n1530 VPB.t28 55.106
R314 VPB.n1451 VPB.t96 55.106
R315 VPB.n1384 VPB.t65 55.106
R316 VPB.n1301 VPB.t30 55.106
R317 VPB.n1222 VPB.t74 55.106
R318 VPB.n1155 VPB.t10 55.106
R319 VPB.n1072 VPB.t6 55.106
R320 VPB.n993 VPB.t11 55.106
R321 VPB.n926 VPB.t36 55.106
R322 VPB.n167 VPB.t7 55.106
R323 VPB.n853 VPB.t35 55.106
R324 VPB.n786 VPB.t58 55.106
R325 VPB.n703 VPB.t29 55.106
R326 VPB.n624 VPB.t99 55.106
R327 VPB.n557 VPB.t22 55.106
R328 VPB.n474 VPB.t12 55.106
R329 VPB.n395 VPB.t61 55.106
R330 VPB.n45 VPB.t17 55.106
R331 VPB.n1491 VPB.t46 55.106
R332 VPB.n1424 VPB.t14 55.106
R333 VPB.n1345 VPB.t44 55.106
R334 VPB.n1262 VPB.t27 55.106
R335 VPB.n1195 VPB.t98 55.106
R336 VPB.n1116 VPB.t21 55.106
R337 VPB.n1033 VPB.t54 55.106
R338 VPB.n966 VPB.t32 55.106
R339 VPB.n887 VPB.t37 55.106
R340 VPB.n134 VPB.t4 55.106
R341 VPB.n826 VPB.t55 55.106
R342 VPB.n747 VPB.t5 55.106
R343 VPB.n664 VPB.t38 55.106
R344 VPB.n597 VPB.t57 55.106
R345 VPB.n518 VPB.t52 55.106
R346 VPB.n435 VPB.t69 55.106
R347 VPB.n368 VPB.t62 55.106
R348 VPB.n311 VPB.n310 48.952
R349 VPB.n374 VPB.n373 48.952
R350 VPB.n448 VPB.n447 48.952
R351 VPB.n531 VPB.n530 48.952
R352 VPB.n603 VPB.n602 48.952
R353 VPB.n677 VPB.n676 48.952
R354 VPB.n760 VPB.n759 48.952
R355 VPB.n832 VPB.n831 48.952
R356 VPB.n143 VPB.n142 48.952
R357 VPB.n900 VPB.n899 48.952
R358 VPB.n972 VPB.n971 48.952
R359 VPB.n1046 VPB.n1045 48.952
R360 VPB.n1129 VPB.n1128 48.952
R361 VPB.n1201 VPB.n1200 48.952
R362 VPB.n1275 VPB.n1274 48.952
R363 VPB.n1358 VPB.n1357 48.952
R364 VPB.n1430 VPB.n1429 48.952
R365 VPB.n1504 VPB.n1503 48.952
R366 VPB.n54 VPB.n53 48.952
R367 VPB.n328 VPB.n327 44.502
R368 VPB.n391 VPB.n390 44.502
R369 VPB.n465 VPB.n464 44.502
R370 VPB.n548 VPB.n547 44.502
R371 VPB.n620 VPB.n619 44.502
R372 VPB.n694 VPB.n693 44.502
R373 VPB.n777 VPB.n776 44.502
R374 VPB.n849 VPB.n848 44.502
R375 VPB.n157 VPB.n156 44.502
R376 VPB.n917 VPB.n916 44.502
R377 VPB.n989 VPB.n988 44.502
R378 VPB.n1063 VPB.n1062 44.502
R379 VPB.n1146 VPB.n1145 44.502
R380 VPB.n1218 VPB.n1217 44.502
R381 VPB.n1292 VPB.n1291 44.502
R382 VPB.n1375 VPB.n1374 44.502
R383 VPB.n1447 VPB.n1446 44.502
R384 VPB.n1521 VPB.n1520 44.502
R385 VPB.n68 VPB.n67 44.502
R386 VPB.n316 VPB.n315 41.183
R387 VPB.n66 VPB.n14 40.824
R388 VPB.n57 VPB.n15 40.824
R389 VPB.n1519 VPB.n1518 40.824
R390 VPB.n1502 VPB.n1501 40.824
R391 VPB.n1435 VPB.n1434 40.824
R392 VPB.n1373 VPB.n1372 40.824
R393 VPB.n1356 VPB.n1355 40.824
R394 VPB.n1290 VPB.n1289 40.824
R395 VPB.n1273 VPB.n1272 40.824
R396 VPB.n1206 VPB.n1205 40.824
R397 VPB.n1144 VPB.n1143 40.824
R398 VPB.n1127 VPB.n1126 40.824
R399 VPB.n1061 VPB.n1060 40.824
R400 VPB.n1044 VPB.n1043 40.824
R401 VPB.n977 VPB.n976 40.824
R402 VPB.n915 VPB.n914 40.824
R403 VPB.n898 VPB.n897 40.824
R404 VPB.n155 VPB.n103 40.824
R405 VPB.n146 VPB.n104 40.824
R406 VPB.n837 VPB.n836 40.824
R407 VPB.n775 VPB.n774 40.824
R408 VPB.n758 VPB.n757 40.824
R409 VPB.n692 VPB.n691 40.824
R410 VPB.n675 VPB.n674 40.824
R411 VPB.n608 VPB.n607 40.824
R412 VPB.n546 VPB.n545 40.824
R413 VPB.n529 VPB.n528 40.824
R414 VPB.n463 VPB.n462 40.824
R415 VPB.n446 VPB.n445 40.824
R416 VPB.n379 VPB.n378 40.824
R417 VPB.n205 VPB.n204 35.118
R418 VPB.n1559 VPB.n1555 20.452
R419 VPB.n194 VPB.n191 20.452
R420 VPB.n318 VPB.n317 17.801
R421 VPB.n381 VPB.n380 17.801
R422 VPB.n453 VPB.n452 17.801
R423 VPB.n536 VPB.n535 17.801
R424 VPB.n610 VPB.n609 17.801
R425 VPB.n682 VPB.n681 17.801
R426 VPB.n765 VPB.n764 17.801
R427 VPB.n839 VPB.n838 17.801
R428 VPB.n148 VPB.n147 17.801
R429 VPB.n905 VPB.n904 17.801
R430 VPB.n979 VPB.n978 17.801
R431 VPB.n1051 VPB.n1050 17.801
R432 VPB.n1134 VPB.n1133 17.801
R433 VPB.n1208 VPB.n1207 17.801
R434 VPB.n1280 VPB.n1279 17.801
R435 VPB.n1363 VPB.n1362 17.801
R436 VPB.n1437 VPB.n1436 17.801
R437 VPB.n1509 VPB.n1508 17.801
R438 VPB.n59 VPB.n58 17.801
R439 VPB.n14 VPB.t94 14.282
R440 VPB.n14 VPB.t1 14.282
R441 VPB.n15 VPB.t15 14.282
R442 VPB.n15 VPB.t95 14.282
R443 VPB.n1518 VPB.t80 14.282
R444 VPB.n1518 VPB.t83 14.282
R445 VPB.n1501 VPB.t47 14.282
R446 VPB.n1501 VPB.t79 14.282
R447 VPB.n1434 VPB.t97 14.282
R448 VPB.n1434 VPB.t16 14.282
R449 VPB.n1372 VPB.t85 14.282
R450 VPB.n1372 VPB.t33 14.282
R451 VPB.n1355 VPB.t42 14.282
R452 VPB.n1355 VPB.t84 14.282
R453 VPB.n1289 VPB.t41 14.282
R454 VPB.n1289 VPB.t82 14.282
R455 VPB.n1272 VPB.t72 14.282
R456 VPB.n1272 VPB.t39 14.282
R457 VPB.n1205 VPB.t0 14.282
R458 VPB.n1205 VPB.t70 14.282
R459 VPB.n1143 VPB.t87 14.282
R460 VPB.n1143 VPB.t73 14.282
R461 VPB.n1126 VPB.t71 14.282
R462 VPB.n1126 VPB.t86 14.282
R463 VPB.n1060 VPB.t81 14.282
R464 VPB.n1060 VPB.t8 14.282
R465 VPB.n1043 VPB.t53 14.282
R466 VPB.n1043 VPB.t77 14.282
R467 VPB.n976 VPB.t3 14.282
R468 VPB.n976 VPB.t20 14.282
R469 VPB.n914 VPB.t89 14.282
R470 VPB.n914 VPB.t66 14.282
R471 VPB.n897 VPB.t43 14.282
R472 VPB.n897 VPB.t90 14.282
R473 VPB.n103 VPB.t45 14.282
R474 VPB.n103 VPB.t19 14.282
R475 VPB.n104 VPB.t31 14.282
R476 VPB.n104 VPB.t48 14.282
R477 VPB.n836 VPB.t26 14.282
R478 VPB.n836 VPB.t56 14.282
R479 VPB.n774 VPB.t93 14.282
R480 VPB.n774 VPB.t59 14.282
R481 VPB.n757 VPB.t75 14.282
R482 VPB.n757 VPB.t88 14.282
R483 VPB.n691 VPB.t76 14.282
R484 VPB.n691 VPB.t25 14.282
R485 VPB.n674 VPB.t40 14.282
R486 VPB.n674 VPB.t78 14.282
R487 VPB.n607 VPB.t60 14.282
R488 VPB.n607 VPB.t9 14.282
R489 VPB.n545 VPB.t91 14.282
R490 VPB.n545 VPB.t24 14.282
R491 VPB.n528 VPB.t50 14.282
R492 VPB.n528 VPB.t92 14.282
R493 VPB.n462 VPB.t51 14.282
R494 VPB.n462 VPB.t34 14.282
R495 VPB.n445 VPB.t67 14.282
R496 VPB.n445 VPB.t49 14.282
R497 VPB.n378 VPB.t64 14.282
R498 VPB.n378 VPB.t63 14.282
R499 VPB.n315 VPB.t18 14.282
R500 VPB.n315 VPB.t13 14.282
R501 VPB.n194 VPB.n193 13.653
R502 VPB.n193 VPB.n192 13.653
R503 VPB.n203 VPB.n202 13.653
R504 VPB.n202 VPB.n201 13.653
R505 VPB.n200 VPB.n199 13.653
R506 VPB.n199 VPB.n198 13.653
R507 VPB.n197 VPB.n196 13.653
R508 VPB.n196 VPB.n195 13.653
R509 VPB.n209 VPB.n208 13.653
R510 VPB.n208 VPB.n207 13.653
R511 VPB.n213 VPB.n212 13.653
R512 VPB.n212 VPB.n211 13.653
R513 VPB.n217 VPB.n216 13.653
R514 VPB.n216 VPB.n215 13.653
R515 VPB.n221 VPB.n220 13.653
R516 VPB.n220 VPB.n219 13.653
R517 VPB.n248 VPB.n247 13.653
R518 VPB.n247 VPB.n246 13.653
R519 VPB.n252 VPB.n251 13.653
R520 VPB.n251 VPB.n250 13.653
R521 VPB.n256 VPB.n255 13.653
R522 VPB.n255 VPB.n254 13.653
R523 VPB.n260 VPB.n259 13.653
R524 VPB.n259 VPB.n258 13.653
R525 VPB.n264 VPB.n263 13.653
R526 VPB.n263 VPB.n262 13.653
R527 VPB.n268 VPB.n267 13.653
R528 VPB.n267 VPB.n266 13.653
R529 VPB.n272 VPB.n271 13.653
R530 VPB.n271 VPB.n270 13.653
R531 VPB.n276 VPB.n275 13.653
R532 VPB.n275 VPB.n274 13.653
R533 VPB.n303 VPB.n302 13.653
R534 VPB.n302 VPB.n301 13.653
R535 VPB.n308 VPB.n307 13.653
R536 VPB.n307 VPB.n306 13.653
R537 VPB.n313 VPB.n312 13.653
R538 VPB.n312 VPB.n311 13.653
R539 VPB.n320 VPB.n319 13.653
R540 VPB.n319 VPB.n318 13.653
R541 VPB.n325 VPB.n324 13.653
R542 VPB.n324 VPB.n323 13.653
R543 VPB.n330 VPB.n329 13.653
R544 VPB.n329 VPB.n328 13.653
R545 VPB.n335 VPB.n334 13.653
R546 VPB.n334 VPB.n333 13.653
R547 VPB.n339 VPB.n338 13.653
R548 VPB.n338 VPB.n337 13.653
R549 VPB.n366 VPB.n365 13.653
R550 VPB.n365 VPB.n364 13.653
R551 VPB.n371 VPB.n370 13.653
R552 VPB.n370 VPB.n369 13.653
R553 VPB.n376 VPB.n375 13.653
R554 VPB.n375 VPB.n374 13.653
R555 VPB.n383 VPB.n382 13.653
R556 VPB.n382 VPB.n381 13.653
R557 VPB.n388 VPB.n387 13.653
R558 VPB.n387 VPB.n386 13.653
R559 VPB.n393 VPB.n392 13.653
R560 VPB.n392 VPB.n391 13.653
R561 VPB.n398 VPB.n397 13.653
R562 VPB.n397 VPB.n396 13.653
R563 VPB.n402 VPB.n401 13.653
R564 VPB.n401 VPB.n400 13.653
R565 VPB.n429 VPB.n428 13.653
R566 VPB.n428 VPB.n427 13.653
R567 VPB.n433 VPB.n432 13.653
R568 VPB.n432 VPB.n431 13.653
R569 VPB.n438 VPB.n437 13.653
R570 VPB.n437 VPB.n436 13.653
R571 VPB.n443 VPB.n442 13.653
R572 VPB.n442 VPB.n441 13.653
R573 VPB.n450 VPB.n449 13.653
R574 VPB.n449 VPB.n448 13.653
R575 VPB.n455 VPB.n454 13.653
R576 VPB.n454 VPB.n453 13.653
R577 VPB.n460 VPB.n459 13.653
R578 VPB.n459 VPB.n458 13.653
R579 VPB.n467 VPB.n466 13.653
R580 VPB.n466 VPB.n465 13.653
R581 VPB.n472 VPB.n471 13.653
R582 VPB.n471 VPB.n470 13.653
R583 VPB.n477 VPB.n476 13.653
R584 VPB.n476 VPB.n475 13.653
R585 VPB.n481 VPB.n480 13.653
R586 VPB.n480 VPB.n479 13.653
R587 VPB.n485 VPB.n484 13.653
R588 VPB.n484 VPB.n483 13.653
R589 VPB.n512 VPB.n511 13.653
R590 VPB.n511 VPB.n510 13.653
R591 VPB.n516 VPB.n515 13.653
R592 VPB.n515 VPB.n514 13.653
R593 VPB.n521 VPB.n520 13.653
R594 VPB.n520 VPB.n519 13.653
R595 VPB.n526 VPB.n525 13.653
R596 VPB.n525 VPB.n524 13.653
R597 VPB.n533 VPB.n532 13.653
R598 VPB.n532 VPB.n531 13.653
R599 VPB.n538 VPB.n537 13.653
R600 VPB.n537 VPB.n536 13.653
R601 VPB.n543 VPB.n542 13.653
R602 VPB.n542 VPB.n541 13.653
R603 VPB.n550 VPB.n549 13.653
R604 VPB.n549 VPB.n548 13.653
R605 VPB.n555 VPB.n554 13.653
R606 VPB.n554 VPB.n553 13.653
R607 VPB.n560 VPB.n559 13.653
R608 VPB.n559 VPB.n558 13.653
R609 VPB.n564 VPB.n563 13.653
R610 VPB.n563 VPB.n562 13.653
R611 VPB.n568 VPB.n567 13.653
R612 VPB.n567 VPB.n566 13.653
R613 VPB.n595 VPB.n594 13.653