* SPICE3 file created from TMRDFFSNRNQX1.ext - technology: sky130A

.subckt TMRDFFSNRNQX1 Q D CLK SN RN VDD GND
M1000 VDD.t60 a_10219_989.t7 a_17533_1051.t6 pshort w=2u l=0.15u
+  ad=0p pd=0u as=0p ps=0u
M1001 a_15669_1050.t4 a_15991_989.t7 VDD.t65 pshort w=2u l=0.15u
+  ad=0p pd=0u as=0p ps=0u
M1002 GND a_6049_1050.t8 a_7787_103.t0 nshort w=-1.605u l=1.765u
+  ad=4.9019p pd=41.07u as=0p ps=0u
M1003 VDD.t42 a_11821_1050.t7 a_12143_989.t3 pshort w=2u l=0.15u
+  ad=0p pd=0u as=0p ps=0u
M1004 a_13105_989.t0 CLK.t1 VDD.t14 pshort w=2u l=0.15u
+  ad=0p pd=0u as=0p ps=0u
M1005 GND a_6371_989.t8 a_9711_103.t0 nshort w=-1.605u l=1.765u
+  ad=0p pd=0u as=0p ps=0u
M1006 VDD.t94 SN.t0 a_15991_989.t5 pshort w=2u l=0.15u
+  ad=0p pd=0u as=0p ps=0u
M1007 GND D.t4 a_5863_103.t0 nshort w=-1.605u l=1.765u
+  ad=0p pd=0u as=0p ps=0u
M1008 VDD.t77 SN.t1 a_10219_989.t4 pshort w=2u l=0.15u
+  ad=0p pd=0u as=0p ps=0u
M1009 a_13745_1050.t3 a_11821_1050.t8 VDD.t43 pshort w=2u l=0.15u
+  ad=0p pd=0u as=0p ps=0u
M1010 VDD.t35 a_12143_989.t7 a_15669_1050.t1 pshort w=2u l=0.15u
+  ad=0p pd=0u as=0p ps=0u
M1011 a_6049_1050.t1 a_6371_989.t7 VDD.t2 pshort w=2u l=0.15u
+  ad=0p pd=0u as=0p ps=0u
M1012 VDD.t69 a_2201_1050.t7 a_1561_989.t4 pshort w=2u l=0.15u
+  ad=0p pd=0u as=0p ps=0u
M1013 VDD.t49 a_7333_989.t7 a_7973_1050.t1 pshort w=2u l=0.15u
+  ad=0p pd=0u as=0p ps=0u
M1014 VDD.t61 a_10219_989.t8 a_9897_1050.t5 pshort w=2u l=0.15u
+  ad=0p pd=0u as=0p ps=0u
M1015 a_4447_989.t3 SN.t2 VDD.t71 pshort w=2u l=0.15u
+  ad=0p pd=0u as=0p ps=0u
M1016 a_17708_209.t2 a_4447_989.t8 a_18197_1051.t2 pshort w=2u l=0.15u
+  ad=0p pd=0u as=0p ps=0u
M1017 a_17533_1051.t7 a_4447_989.t9 a_18197_1051.t1 pshort w=2u l=0.15u
+  ad=0p pd=0u as=0p ps=0u
M1018 VDD.t19 CLK.t2 a_6371_989.t1 pshort w=2u l=0.15u
+  ad=0p pd=0u as=0p ps=0u
M1019 a_7333_989.t4 RN.t0 VDD.t106 pshort w=2u l=0.15u
+  ad=0p pd=0u as=0p ps=0u
M1020 GND a_11821_1050.t9 a_12597_103.t0 nshort w=-1.605u l=1.765u
+  ad=0p pd=0u as=0p ps=0u
M1021 VDD.t54 D.t1 a_6049_1050.t2 pshort w=2u l=0.15u
+  ad=0p pd=0u as=0p ps=0u
M1022 GND a_13745_1050.t7 a_14521_103.t0 nshort w=-1.605u l=1.765u
+  ad=0p pd=0u as=0p ps=0u
M1023 a_7973_1050.t4 SN.t4 VDD.t78 pshort w=2u l=0.15u
+  ad=0p pd=0u as=0p ps=0u
M1024 a_18197_1051.t4 a_10219_989.t9 a_17708_209.t4 pshort w=2u l=0.15u
+  ad=0p pd=0u as=0p ps=0u
M1025 VDD.t38 a_15991_989.t9 a_17533_1051.t3 pshort w=2u l=0.15u
+  ad=0p pd=0u as=0p ps=0u
M1026 GND a_9897_1050.t7 a_10673_103.t0 nshort w=-1.605u l=1.765u
+  ad=0p pd=0u as=0p ps=0u
M1027 GND a_7973_1050.t7 a_8749_103.t0 nshort w=-1.605u l=1.765u
+  ad=0p pd=0u as=0p ps=0u
M1028 VDD.t68 D.t2 a_277_1050.t1 pshort w=2u l=0.15u
+  ad=0p pd=0u as=0p ps=0u
M1029 Q a_17708_209.t7 GND.t15 nshort w=-1.605u l=1.765u
+  ad=0.1791p pd=1.57u as=0p ps=0u
M1030 VDD.t86 D.t3 a_11821_1050.t4 pshort w=2u l=0.15u
+  ad=0p pd=0u as=0p ps=0u
M1031 GND D.t5 a_91_103.t0 nshort w=-1.605u l=1.765u
+  ad=0p pd=0u as=0p ps=0u
M1032 VDD.t85 RN.t2 a_15669_1050.t5 pshort w=2u l=0.15u
+  ad=0p pd=0u as=0p ps=0u
M1033 a_599_989.t3 CLK.t3 VDD.t18 pshort w=2u l=0.15u
+  ad=0p pd=0u as=0p ps=0u
M1034 VDD.t105 RN.t3 a_9897_1050.t6 pshort w=2u l=0.15u
+  ad=0p pd=0u as=0p ps=0u
M1035 a_11821_1050.t1 a_12143_989.t8 VDD.t36 pshort w=2u l=0.15u
+  ad=0p pd=0u as=0p ps=0u
M1036 VDD.t10 CLK.t4 a_1561_989.t1 pshort w=2u l=0.15u
+  ad=0p pd=0u as=0p ps=0u
M1037 VDD.t33 a_13105_989.t9 a_13745_1050.t2 pshort w=2u l=0.15u
+  ad=0p pd=0u as=0p ps=0u
M1038 GND a_15991_989.t11 a_17428_101.t0 nshort w=-1.605u l=1.765u
+  ad=0p pd=0u as=0p ps=0u
M1039 VDD.t102 a_277_1050.t7 a_2201_1050.t6 pshort w=2u l=0.15u
+  ad=0p pd=0u as=0p ps=0u
M1040 a_7333_989.t1 CLK.t6 VDD.t21 pshort w=2u l=0.15u
+  ad=0p pd=0u as=0p ps=0u
M1041 a_10219_989.t0 SN.t5 VDD.t3 pshort w=2u l=0.15u
+  ad=0p pd=0u as=0p ps=0u
M1042 VDD.t75 a_7333_989.t8 a_6371_989.t5 pshort w=2u l=0.15u
+  ad=0p pd=0u as=0p ps=0u
M1043 VDD.t16 CLK.t7 a_12143_989.t1 pshort w=2u l=0.15u
+  ad=0p pd=0u as=0p ps=0u
M1044 a_13105_989.t3 RN.t4 VDD.t24 pshort w=2u l=0.15u
+  ad=0p pd=0u as=0p ps=0u
M1045 GND a_11821_1050.t10 a_13559_103.t0 nshort w=-1.605u l=1.765u
+  ad=0p pd=0u as=0p ps=0u
M1046 GND a_12143_989.t9 a_15483_103.t0 nshort w=-1.605u l=1.765u
+  ad=0p pd=0u as=0p ps=0u
M1047 VDD.t80 RN.t5 a_277_1050.t6 pshort w=2u l=0.15u
+  ad=0p pd=0u as=0p ps=0u
M1048 a_6371_989.t4 a_6049_1050.t9 VDD.t56 pshort w=2u l=0.15u
+  ad=0p pd=0u as=0p ps=0u
M1049 a_17533_1051.t4 a_15991_989.t10 VDD.t39 pshort w=2u l=0.15u
+  ad=0p pd=0u as=0p ps=0u
M1050 VDD.t109 a_7973_1050.t8 a_7333_989.t5 pshort w=2u l=0.15u
+  ad=0p pd=0u as=0p ps=0u
M1051 VDD.t93 a_9897_1050.t8 a_10219_989.t6 pshort w=2u l=0.15u
+  ad=0p pd=0u as=0p ps=0u
M1052 a_12143_989.t0 CLK.t8 VDD.t15 pshort w=2u l=0.15u
+  ad=0p pd=0u as=0p ps=0u
M1053 a_599_989.t6 a_1561_989.t7 VDD.t5 pshort w=2u l=0.15u
+  ad=0p pd=0u as=0p ps=0u
M1054 a_15991_989.t0 a_15669_1050.t7 VDD.t25 pshort w=2u l=0.15u
+  ad=0p pd=0u as=0p ps=0u
M1055 VDD.t104 RN.t7 a_1561_989.t6 pshort w=2u l=0.15u
+  ad=0p pd=0u as=0p ps=0u
M1056 a_9897_1050.t2 a_6371_989.t9 VDD.t88 pshort w=2u l=0.15u
+  ad=0p pd=0u as=0p ps=0u
M1057 GND a_15669_1050.t8 a_16445_103.t0 nshort w=-1.605u l=1.765u
+  ad=0p pd=0u as=0p ps=0u
M1058 a_4125_1050.t3 a_599_989.t8 VDD.t28 pshort w=2u l=0.15u
+  ad=0p pd=0u as=0p ps=0u
M1059 VDD.t112 SN.t6 a_2201_1050.t3 pshort w=2u l=0.15u
+  ad=0p pd=0u as=0p ps=0u
M1060 a_4125_1050.t2 a_4447_989.t10 VDD.t9 pshort w=2u l=0.15u
+  ad=0p pd=0u as=0p ps=0u
M1061 VDD.t72 a_6371_989.t10 a_6049_1050.t4 pshort w=2u l=0.15u
+  ad=0p pd=0u as=0p ps=0u
M1062 a_18197_1051.t7 a_15991_989.t12 a_17533_1051.t1 pshort w=2u l=0.15u
+  ad=0p pd=0u as=0p ps=0u
M1063 a_1561_989.t0 CLK.t9 VDD.t12 pshort w=2u l=0.15u
+  ad=0p pd=0u as=0p ps=0u
M1064 VDD.t81 a_599_989.t9 a_277_1050.t3 pshort w=2u l=0.15u
+  ad=0p pd=0u as=0p ps=0u
M1065 a_13745_1050.t4 SN.t7 VDD.t51 pshort w=2u l=0.15u
+  ad=0p pd=0u as=0p ps=0u
M1066 a_17533_1051.t5 a_10219_989.t11 VDD.t59 pshort w=2u l=0.15u
+  ad=0p pd=0u as=0p ps=0u
M1067 a_12143_989.t2 a_11821_1050.t11 VDD.t98 pshort w=2u l=0.15u
+  ad=0p pd=0u as=0p ps=0u
M1068 VDD.t47 a_13745_1050.t8 a_13105_989.t4 pshort w=2u l=0.15u
+  ad=0p pd=0u as=0p ps=0u
M1069 a_15991_989.t6 SN.t10 VDD.t97 pshort w=2u l=0.15u
+  ad=0p pd=0u as=0p ps=0u
M1070 VDD.t100 a_17708_209.t8 Q.t2 pshort w=2u l=0.15u
+  ad=0p pd=0u as=0p ps=0u
M1071 a_15669_1050.t6 a_12143_989.t10 VDD.t108 pshort w=2u l=0.15u
+  ad=0p pd=0u as=0p ps=0u
M1072 a_4125_1050.t5 RN.t9 VDD.t79 pshort w=2u l=0.15u
+  ad=0p pd=0u as=0p ps=0u
M1073 GND a_277_1050.t8 a_2015_103.t0 nshort w=-1.605u l=1.765u
+  ad=0p pd=0u as=0p ps=0u
M1074 VDD.t73 a_1561_989.t8 a_2201_1050.t4 pshort w=2u l=0.15u
+  ad=0p pd=0u as=0p ps=0u
M1075 VDD.t84 RN.t10 a_6049_1050.t6 pshort w=2u l=0.15u
+  ad=0p pd=0u as=0p ps=0u
M1076 a_7333_989.t6 a_7973_1050.t9 VDD.t113 pshort w=2u l=0.15u
+  ad=0p pd=0u as=0p ps=0u
M1077 a_7973_1050.t0 a_7333_989.t9 VDD.t70 pshort w=2u l=0.15u
+  ad=0p pd=0u as=0p ps=0u
M1078 a_9897_1050.t4 a_10219_989.t12 VDD.t62 pshort w=2u l=0.15u
+  ad=0p pd=0u as=0p ps=0u
M1079 VDD.t34 a_13105_989.t10 a_15991_989.t2 pshort w=2u l=0.15u
+  ad=0p pd=0u as=0p ps=0u
M1080 a_1561_989.t3 a_2201_1050.t8 VDD.t50 pshort w=2u l=0.15u
+  ad=0p pd=0u as=0p ps=0u
M1081 a_18197_1051.t0 a_4447_989.t13 a_17533_1051.t0 pshort w=2u l=0.15u
+  ad=0p pd=0u as=0p ps=0u
M1082 VDD.t1 a_4125_1050.t8 a_4447_989.t1 pshort w=2u l=0.15u
+  ad=0p pd=0u as=0p ps=0u
M1083 a_6371_989.t0 CLK.t12 VDD.t17 pshort w=2u l=0.15u
+  ad=0p pd=0u as=0p ps=0u
M1084 VDD.t20 CLK.t13 a_7333_989.t0 pshort w=2u l=0.15u
+  ad=0p pd=0u as=0p ps=0u
M1085 a_6049_1050.t0 D.t6 VDD.t0 pshort w=2u l=0.15u
+  ad=0p pd=0u as=0p ps=0u
M1086 a_17708_209.t3 a_10219_989.t13 a_18197_1051.t5 pshort w=2u l=0.15u
+  ad=0p pd=0u as=0p ps=0u
M1087 a_277_1050.t0 D.t7 VDD.t89 pshort w=2u l=0.15u
+  ad=0p pd=0u as=0p ps=0u
M1088 VDD.t13 CLK.t14 a_13105_989.t1 pshort w=2u l=0.15u
+  ad=0p pd=0u as=0p ps=0u
M1089 a_15991_989.t1 a_13105_989.t11 VDD.t31 pshort w=2u l=0.15u
+  ad=0p pd=0u as=0p ps=0u
M1090 a_10219_989.t2 a_7333_989.t10 VDD.t8 pshort w=2u l=0.15u
+  ad=0p pd=0u as=0p ps=0u
M1091 VDD.t99 a_11821_1050.t12 a_13745_1050.t6 pshort w=2u l=0.15u
+  ad=0p pd=0u as=0p ps=0u
M1092 VDD.t30 a_13105_989.t12 a_12143_989.t6 pshort w=2u l=0.15u
+  ad=0p pd=0u as=0p ps=0u
M1093 a_15669_1050.t0 RN.t13 VDD.t23 pshort w=2u l=0.15u
+  ad=0p pd=0u as=0p ps=0u
M1094 GND a_2201_1050.t9 a_2977_103.t0 nshort w=-1.605u l=1.765u
+  ad=0p pd=0u as=0p ps=0u
M1095 VDD.t64 a_277_1050.t9 a_599_989.t1 pshort w=2u l=0.15u
+  ad=0p pd=0u as=0p ps=0u
M1096 a_9897_1050.t0 RN.t14 VDD.t48 pshort w=2u l=0.15u
+  ad=0p pd=0u as=0p ps=0u
M1097 VDD.t7 RN.t15 a_11821_1050.t0 pshort w=2u l=0.15u
+  ad=0p pd=0u as=0p ps=0u
M1098 VDD.t74 a_1561_989.t11 a_599_989.t5 pshort w=2u l=0.15u
+  ad=0p pd=0u as=0p ps=0u
M1099 a_13745_1050.t1 a_13105_989.t13 VDD.t32 pshort w=2u l=0.15u
+  ad=0p pd=0u as=0p ps=0u
M1100 GND a_277_1050.t10 a_1053_103.t0 nshort w=-1.605u l=1.765u
+  ad=0p pd=0u as=0p ps=0u
M1101 VDD.t91 SN.t12 a_4447_989.t2 pshort w=2u l=0.15u
+  ad=0p pd=0u as=0p ps=0u
M1102 a_18197_1051.t3 a_4447_989.t14 a_17708_209.t1 pshort w=2u l=0.15u
+  ad=0p pd=0u as=0p ps=0u
M1103 VDD.t37 a_15991_989.t13 a_15669_1050.t3 pshort w=2u l=0.15u
+  ad=0p pd=0u as=0p ps=0u
M1104 a_6371_989.t2 a_7333_989.t12 VDD.t53 pshort w=2u l=0.15u
+  ad=0p pd=0u as=0p ps=0u
M1105 VDD.t67 RN.t17 a_7333_989.t2 pshort w=2u l=0.15u
+  ad=0p pd=0u as=0p ps=0u
M1106 VDD.t82 SN.t13 a_7973_1050.t3 pshort w=2u l=0.15u
+  ad=0p pd=0u as=0p ps=0u
M1107 a_277_1050.t5 RN.t18 VDD.t40 pshort w=2u l=0.15u
+  ad=0p pd=0u as=0p ps=0u
M1108 a_11821_1050.t3 RN.t19 VDD.t66 pshort w=2u l=0.15u
+  ad=0p pd=0u as=0p ps=0u
M1109 VDD.t76 SN.t14 a_13745_1050.t5 pshort w=2u l=0.15u
+  ad=0p pd=0u as=0p ps=0u
M1110 a_10219_989.t5 a_9897_1050.t9 VDD.t92 pshort w=2u l=0.15u
+  ad=0p pd=0u as=0p ps=0u
M1111 GND a_599_989.t11 a_3939_103.t0 nshort w=-1.605u l=1.765u
+  ad=0p pd=0u as=0p ps=0u
M1112 VDD.t11 CLK.t15 a_599_989.t2 pshort w=2u l=0.15u
+  ad=0p pd=0u as=0p ps=0u
M1113 a_1561_989.t5 RN.t20 VDD.t103 pshort w=2u l=0.15u
+  ad=0p pd=0u as=0p ps=0u
M1114 VDD.t107 a_12143_989.t12 a_11821_1050.t6 pshort w=2u l=0.15u
+  ad=0p pd=0u as=0p ps=0u
M1115 VDD.t111 a_1561_989.t13 a_4447_989.t6 pshort w=2u l=0.15u
+  ad=0p pd=0u as=0p ps=0u
M1116 a_2201_1050.t2 SN.t15 VDD.t96 pshort w=2u l=0.15u
+  ad=0p pd=0u as=0p ps=0u
M1117 a_12143_989.t5 a_13105_989.t14 VDD.t29 pshort w=2u l=0.15u
+  ad=0p pd=0u as=0p ps=0u
M1118 VDD.t6 RN.t21 a_4125_1050.t1 pshort w=2u l=0.15u
+  ad=0p pd=0u as=0p ps=0u
M1119 VDD.t22 RN.t22 a_13105_989.t2 pshort w=2u l=0.15u
+  ad=0p pd=0u as=0p ps=0u
M1120 a_599_989.t0 a_277_1050.t11 VDD.t101 pshort w=2u l=0.15u
+  ad=0p pd=0u as=0p ps=0u
M1121 VDD.t58 a_6049_1050.t10 a_7973_1050.t6 pshort w=2u l=0.15u
+  ad=0p pd=0u as=0p ps=0u
M1122 a_277_1050.t4 a_599_989.t10 VDD.t87 pshort w=2u l=0.15u
+  ad=0p pd=0u as=0p ps=0u
M1123 a_11821_1050.t2 D.t8 VDD.t52 pshort w=2u l=0.15u
+  ad=0p pd=0u as=0p ps=0u
M1124 GND a_6049_1050.t7 a_6825_103.t0 nshort w=-1.605u l=1.765u
+  ad=0p pd=0u as=0p ps=0u
M1125 a_13105_989.t6 a_13745_1050.t9 VDD.t46 pshort w=2u l=0.15u
+  ad=0p pd=0u as=0p ps=0u
M1126 GND a_4125_1050.t7 a_4901_103.t0 nshort w=-1.605u l=1.765u
+  ad=0p pd=0u as=0p ps=0u
M1127 VDD.t41 a_15669_1050.t9 a_15991_989.t4 pshort w=2u l=0.15u
+  ad=0p pd=0u as=0p ps=0u
M1128 a_7973_1050.t5 a_6049_1050.t11 VDD.t57 pshort w=2u l=0.15u
+  ad=0p pd=0u as=0p ps=0u
M1129 VDD.t110 a_6371_989.t12 a_9897_1050.t1 pshort w=2u l=0.15u
+  ad=0p pd=0u as=0p ps=0u
M1130 a_2201_1050.t1 a_277_1050.t12 VDD.t27 pshort w=2u l=0.15u
+  ad=0p pd=0u as=0p ps=0u
M1131 VDD.t4 a_7333_989.t15 a_10219_989.t1 pshort w=2u l=0.15u
+  ad=0p pd=0u as=0p ps=0u
M1132 Q.t1 a_17708_209.t9 VDD.t26 pshort w=2u l=0.15u
+  ad=0p pd=0u as=0p ps=0u
M1133 a_2201_1050.t5 a_1561_989.t14 VDD.t90 pshort w=2u l=0.15u
+  ad=0p pd=0u as=0p ps=0u
M1134 VDD.t44 a_599_989.t12 a_4125_1050.t4 pshort w=2u l=0.15u
+  ad=0p pd=0u as=0p ps=0u
M1135 a_6049_1050.t3 RN.t26 VDD.t63 pshort w=2u l=0.15u
+  ad=0p pd=0u as=0p ps=0u
M1136 GND a_4447_989.t7 a_18760_101.t0 nshort w=-1.605u l=1.765u
+  ad=0p pd=0u as=0p ps=0u
M1137 GND a_15991_989.t8 a_18094_101.t0 nshort w=-1.605u l=1.765u
+  ad=0p pd=0u as=0p ps=0u
M1138 VDD.t95 a_4447_989.t15 a_4125_1050.t6 pshort w=2u l=0.15u
+  ad=0p pd=0u as=0p ps=0u
M1139 a_17533_1051.t2 a_15991_989.t14 a_18197_1051.t6 pshort w=2u l=0.15u
+  ad=0p pd=0u as=0p ps=0u
M1140 a_4447_989.t0 a_4125_1050.t9 VDD.t45 pshort w=2u l=0.15u
+  ad=0p pd=0u as=0p ps=0u
M1141 VDD.t55 a_6049_1050.t12 a_6371_989.t3 pshort w=2u l=0.15u
+  ad=0p pd=0u as=0p ps=0u
M1142 a_4447_989.t4 a_1561_989.t15 VDD.t83 pshort w=2u l=0.15u
+  ad=0p pd=0u as=0p ps=0u
M1143 GND D.t0 a_11635_103.t0 nshort w=-1.605u l=1.765u
+  ad=0p pd=0u as=0p ps=0u
C0 VDD SN 0.30fF
C1 VDD Q 0.76fF
C2 D SN 0.31fF
C3 RN SN 16.07fF
C4 CLK SN 0.63fF
C5 VDD D 5.87fF
C6 VDD RN 0.48fF
C7 VDD CLK 1.65fF
C8 D RN 2.36fF
C9 D CLK 12.06fF
C10 RN CLK 1.11fF
R0 CLK.n18 CLK.t15 459.505
R1 CLK.n15 CLK.t4 459.505
R2 CLK.n12 CLK.t2 459.505
R3 CLK.n7 CLK.t13 459.505
R4 CLK.n4 CLK.t7 459.505
R5 CLK.n0 CLK.t14 459.505
R6 CLK.n18 CLK.t3 384.527
R7 CLK.n15 CLK.t9 384.527
R8 CLK.n12 CLK.t12 384.527
R9 CLK.n7 CLK.t6 384.527
R10 CLK.n4 CLK.t8 384.527
R11 CLK.n0 CLK.t1 384.527
R12 CLK.n16 CLK.t0 322.151
R13 CLK.n8 CLK.t5 322.151
R14 CLK.n1 CLK.t10 322.151
R15 CLK.n20 CLK.t17 321.792
R16 CLK.n10 CLK.t16 320.152
R17 CLK.n2 CLK.t11 320.152
R18 CLK.n19 CLK 152
R19 CLK.n6 CLK.n5 75.989
R20 CLK.n14 CLK.n13 75.989
R21 CLK.n3 CLK.n2 75.568
R22 CLK.n11 CLK.n10 75.568
R23 CLK.n3 CLK.n1 56.374
R24 CLK.n21 CLK.n20 49.379
R25 CLK.n9 CLK.n8 49.342
R26 CLK.n17 CLK.n16 49.342
R27 CLK.n1 CLK.n0 27.599
R28 CLK.n8 CLK.n7 27.599
R29 CLK.n16 CLK.n15 27.599
R30 CLK.n19 CLK.n18 21.475
R31 CLK.n13 CLK.n12 21.475
R32 CLK.n5 CLK.n4 21.475
R33 CLK.n9 CLK.n6 14.076
R34 CLK.n17 CLK.n14 14.076
R35 CLK.n11 CLK.n9 7.032
R36 CLK.n21 CLK.n17 7.032
R37 CLK.n20 CLK.n19 3.3
R38 CLK.n21 CLK 0.046
R39 CLK.n6 CLK.n3 0.023
R40 CLK.n14 CLK.n11 0.023
R41 a_2977_103.t0 a_2977_103.n0 117.777
R42 a_2977_103.n2 a_2977_103.n1 55.228
R43 a_2977_103.n4 a_2977_103.n3 9.111
R44 a_2977_103.n8 a_2977_103.n6 7.859
R45 a_2977_103.t0 a_2977_103.n2 4.04
R46 a_2977_103.t0 a_2977_103.n8 3.034
R47 a_2977_103.n6 a_2977_103.n4 1.964
R48 a_2977_103.n6 a_2977_103.n5 1.964
R49 a_2977_103.n8 a_2977_103.n7 0.443
R50 a_3258_210.n12 a_3258_210.n10 82.852
R51 a_3258_210.n13 a_3258_210.n0 49.6
R52 a_3258_210.t1 a_3258_210.n2 46.91
R53 a_3258_210.n7 a_3258_210.n5 34.805
R54 a_3258_210.n7 a_3258_210.n6 32.622
R55 a_3258_210.n10 a_3258_210.t1 32.416
R56 a_3258_210.n12 a_3258_210.n11 27.2
R57 a_3258_210.n13 a_3258_210.n12 22.4
R58 a_3258_210.n9 a_3258_210.n7 19.017
R59 a_3258_210.n2 a_3258_210.n1 17.006
R60 a_3258_210.n5 a_3258_210.n4 7.5
R61 a_3258_210.n9 a_3258_210.n8 7.5
R62 a_3258_210.t1 a_3258_210.n3 7.04
R63 a_3258_210.n10 a_3258_210.n9 1.435
R64 a_13105_989.n7 a_13105_989.t13 454.685
R65 a_13105_989.n9 a_13105_989.t14 454.685
R66 a_13105_989.n5 a_13105_989.t11 454.685
R67 a_13105_989.n7 a_13105_989.t9 428.979
R68 a_13105_989.n9 a_13105_989.t12 428.979
R69 a_13105_989.n5 a_13105_989.t10 428.979
R70 a_13105_989.n8 a_13105_989.t7 264.512
R71 a_13105_989.n6 a_13105_989.t8 264.512
R72 a_13105_989.n10 a_13105_989.t15 264.173
R73 a_13105_989.n15 a_13105_989.n13 246.179
R74 a_13105_989.n13 a_13105_989.n4 144.246
R75 a_13105_989.n12 a_13105_989.n6 82.484
R76 a_13105_989.n11 a_13105_989.n10 79.495
R77 a_13105_989.n3 a_13105_989.n2 79.232
R78 a_13105_989.n11 a_13105_989.n8 76
R79 a_13105_989.n13 a_13105_989.n12 76
R80 a_13105_989.n8 a_13105_989.n7 71.894
R81 a_13105_989.n6 a_13105_989.n5 71.894
R82 a_13105_989.n10 a_13105_989.n9 71.555
R83 a_13105_989.n4 a_13105_989.n3 63.152
R84 a_13105_989.n4 a_13105_989.n0 16.08
R85 a_13105_989.n3 a_13105_989.n1 16.08
R86 a_13105_989.n15 a_13105_989.n14 15.218
R87 a_13105_989.n0 a_13105_989.t2 14.282
R88 a_13105_989.n0 a_13105_989.t3 14.282
R89 a_13105_989.n1 a_13105_989.t1 14.282
R90 a_13105_989.n1 a_13105_989.t0 14.282
R91 a_13105_989.n2 a_13105_989.t4 14.282
R92 a_13105_989.n2 a_13105_989.t6 14.282
R93 a_13105_989.n16 a_13105_989.n15 12.014
R94 a_13105_989.n12 a_13105_989.n11 4.035
R95 a_13840_210.n12 a_13840_210.n5 96.467
R96 a_13840_210.t0 a_13840_210.n1 46.91
R97 a_13840_210.n9 a_13840_210.n7 34.805
R98 a_13840_210.n9 a_13840_210.n8 32.622
R99 a_13840_210.t0 a_13840_210.n12 32.417
R100 a_13840_210.n5 a_13840_210.n4 22.349
R101 a_13840_210.n11 a_13840_210.n9 19.017
R102 a_13840_210.n1 a_13840_210.n0 17.006
R103 a_13840_210.n5 a_13840_210.n3 8.443
R104 a_13840_210.t0 a_13840_210.n2 8.137
R105 a_13840_210.n7 a_13840_210.n6 7.5
R106 a_13840_210.n11 a_13840_210.n10 7.5
R107 a_13840_210.n12 a_13840_210.n11 1.435
R108 a_13745_1050.n5 a_13745_1050.t8 512.525
R109 a_13745_1050.n5 a_13745_1050.t9 371.139
R110 a_13745_1050.n6 a_13745_1050.t7 234.562
R111 a_13745_1050.n7 a_13745_1050.n4 223.905
R112 a_13745_1050.n6 a_13745_1050.n5 215.819
R113 a_13745_1050.n9 a_13745_1050.n7 166.52
R114 a_13745_1050.n7 a_13745_1050.n6 153.315
R115 a_13745_1050.n3 a_13745_1050.n2 79.232
R116 a_13745_1050.n4 a_13745_1050.n3 63.152
R117 a_13745_1050.n4 a_13745_1050.n0 16.08
R118 a_13745_1050.n3 a_13745_1050.n1 16.08
R119 a_13745_1050.n9 a_13745_1050.n8 15.218
R120 a_13745_1050.n0 a_13745_1050.t2 14.282
R121 a_13745_1050.n0 a_13745_1050.t1 14.282
R122 a_13745_1050.n1 a_13745_1050.t5 14.282
R123 a_13745_1050.n1 a_13745_1050.t4 14.282
R124 a_13745_1050.n2 a_13745_1050.t6 14.282
R125 a_13745_1050.n2 a_13745_1050.t3 14.282
R126 a_13745_1050.n10 a_13745_1050.n9 12.014
R127 a_6049_1050.n7 a_6049_1050.t12 512.525
R128 a_6049_1050.n5 a_6049_1050.t10 512.525
R129 a_6049_1050.n7 a_6049_1050.t9 371.139
R130 a_6049_1050.n5 a_6049_1050.t11 371.139
R131 a_6049_1050.n8 a_6049_1050.t7 234.921
R132 a_6049_1050.n6 a_6049_1050.t8 234.921
R133 a_6049_1050.n10 a_6049_1050.n4 223.546
R134 a_6049_1050.n8 a_6049_1050.n7 215.46
R135 a_6049_1050.n6 a_6049_1050.n5 215.46
R136 a_6049_1050.n12 a_6049_1050.n10 166.879
R137 a_6049_1050.n9 a_6049_1050.n6 79.491
R138 a_6049_1050.n3 a_6049_1050.n2 79.232
R139 a_6049_1050.n10 a_6049_1050.n9 77.315
R140 a_6049_1050.n9 a_6049_1050.n8 76
R141 a_6049_1050.n4 a_6049_1050.n3 63.152
R142 a_6049_1050.n4 a_6049_1050.n0 16.08
R143 a_6049_1050.n3 a_6049_1050.n1 16.08
R144 a_6049_1050.n12 a_6049_1050.n11 15.218
R145 a_6049_1050.n0 a_6049_1050.t4 14.282
R146 a_6049_1050.n0 a_6049_1050.t1 14.282
R147 a_6049_1050.n1 a_6049_1050.t6 14.282
R148 a_6049_1050.n1 a_6049_1050.t3 14.282
R149 a_6049_1050.n2 a_6049_1050.t2 14.282
R150 a_6049_1050.n2 a_6049_1050.t0 14.282
R151 a_6049_1050.n13 a_6049_1050.n12 12.014
R152 a_6825_103.t0 a_6825_103.n0 117.777
R153 a_6825_103.n2 a_6825_103.n1 55.228
R154 a_6825_103.n4 a_6825_103.n3 9.111
R155 a_6825_103.n8 a_6825_103.n6 7.859
R156 a_6825_103.t0 a_6825_103.n2 4.04
R157 a_6825_103.t0 a_6825_103.n8 3.034
R158 a_6825_103.n6 a_6825_103.n4 1.964
R159 a_6825_103.n6 a_6825_103.n5 1.964
R160 a_6825_103.n8 a_6825_103.n7 0.443
R161 GND.n30 GND.n29 219.745
R162 GND.n60 GND.n58 219.745
R163 GND.n90 GND.n88 219.745
R164 GND.n487 GND.n486 219.745
R165 GND.n529 GND.n527 219.745
R166 GND.n571 GND.n569 219.745
R167 GND.n613 GND.n611 219.745
R168 GND.n655 GND.n653 219.745
R169 GND.n697 GND.n695 219.745
R170 GND.n742 GND.n740 219.745
R171 GND.n784 GND.n782 219.745
R172 GND.n829 GND.n827 219.745
R173 GND.n871 GND.n869 219.745
R174 GND.n417 GND.n415 219.745
R175 GND.n375 GND.n373 219.745
R176 GND.n333 GND.n331 219.745
R177 GND.n291 GND.n289 219.745
R178 GND.n249 GND.n247 219.745
R179 GND.n204 GND.n202 219.745
R180 GND.n162 GND.n160 219.745
R181 GND.n120 GND.n119 219.745
R182 GND.n151 GND.n150 85.559
R183 GND.n193 GND.n192 85.559
R184 GND.n280 GND.n279 85.559
R185 GND.n322 GND.n321 85.559
R186 GND.n364 GND.n363 85.559
R187 GND.n406 GND.n405 85.559
R188 GND.n880 GND.n879 85.559
R189 GND.n838 GND.n837 85.559
R190 GND.n751 GND.n750 85.559
R191 GND.n664 GND.n663 85.559
R192 GND.n622 GND.n621 85.559
R193 GND.n580 GND.n579 85.559
R194 GND.n538 GND.n537 85.559
R195 GND.n496 GND.n495 85.559
R196 GND.n454 GND.n453 85.559
R197 GND.n30 GND.n28 85.529
R198 GND.n60 GND.n59 85.529
R199 GND.n90 GND.n89 85.529
R200 GND.n487 GND.n485 85.529
R201 GND.n529 GND.n528 85.529
R202 GND.n571 GND.n570 85.529
R203 GND.n613 GND.n612 85.529
R204 GND.n655 GND.n654 85.529
R205 GND.n697 GND.n696 85.529
R206 GND.n742 GND.n741 85.529
R207 GND.n784 GND.n783 85.529
R208 GND.n829 GND.n828 85.529
R209 GND.n871 GND.n870 85.529
R210 GND.n417 GND.n416 85.529
R211 GND.n375 GND.n374 85.529
R212 GND.n333 GND.n332 85.529
R213 GND.n291 GND.n290 85.529
R214 GND.n249 GND.n248 85.529
R215 GND.n204 GND.n203 85.529
R216 GND.n162 GND.n161 85.529
R217 GND.n120 GND.n118 85.529
R218 GND.n78 GND.n77 84.842
R219 GND.n108 GND.n107 84.842
R220 GND.n48 GND.n47 84.842
R221 GND.n9 GND.n1 76.145
R222 GND.n448 GND.n447 76
R223 GND.n73 GND.n72 76
R224 GND.n76 GND.n75 76
R225 GND.n81 GND.n80 76
R226 GND.n84 GND.n83 76
R227 GND.n87 GND.n86 76
R228 GND.n94 GND.n93 76
R229 GND.n97 GND.n96 76
R230 GND.n100 GND.n99 76
R231 GND.n103 GND.n102 76
R232 GND.n106 GND.n105 76
R233 GND.n111 GND.n110 76
R234 GND.n114 GND.n113 76
R235 GND.n117 GND.n116 76
R236 GND.n124 GND.n123 76
R237 GND.n127 GND.n126 76
R238 GND.n130 GND.n129 76
R239 GND.n133 GND.n132 76
R240 GND.n136 GND.n135 76
R241 GND.n139 GND.n138 76
R242 GND.n142 GND.n141 76
R243 GND.n145 GND.n144 76
R244 GND.n148 GND.n147 76
R245 GND.n153 GND.n152 76
R246 GND.n156 GND.n155 76
R247 GND.n159 GND.n158 76
R248 GND.n166 GND.n165 76
R249 GND.n169 GND.n168 76
R250 GND.n172 GND.n171 76
R251 GND.n175 GND.n174 76
R252 GND.n178 GND.n177 76
R253 GND.n181 GND.n180 76
R254 GND.n184 GND.n183 76
R255 GND.n187 GND.n186 76
R256 GND.n190 GND.n189 76
R257 GND.n195 GND.n194 76
R258 GND.n198 GND.n197 76
R259 GND.n201 GND.n200 76
R260 GND.n208 GND.n207 76
R261 GND.n211 GND.n210 76
R262 GND.n214 GND.n213 76
R263 GND.n217 GND.n216 76
R264 GND.n220 GND.n219 76
R265 GND.n223 GND.n222 76
R266 GND.n226 GND.n225 76
R267 GND.n229 GND.n228 76
R268 GND.n232 GND.n231 76
R269 GND.n240 GND.n239 76
R270 GND.n243 GND.n242 76
R271 GND.n246 GND.n245 76
R272 GND.n253 GND.n252 76
R273 GND.n256 GND.n255 76
R274 GND.n259 GND.n258 76
R275 GND.n262 GND.n261 76
R276 GND.n265 GND.n264 76
R277 GND.n268 GND.n267 76
R278 GND.n271 GND.n270 76
R279 GND.n274 GND.n273 76
R280 GND.n277 GND.n276 76
R281 GND.n282 GND.n281 76
R282 GND.n285 GND.n284 76
R283 GND.n288 GND.n287 76
R284 GND.n295 GND.n294 76
R285 GND.n298 GND.n297 76
R286 GND.n301 GND.n300 76
R287 GND.n304 GND.n303 76
R288 GND.n307 GND.n306 76
R289 GND.n310 GND.n309 76
R290 GND.n313 GND.n312 76
R291 GND.n316 GND.n315 76
R292 GND.n319 GND.n318 76
R293 GND.n324 GND.n323 76
R294 GND.n327 GND.n326 76
R295 GND.n330 GND.n329 76
R296 GND.n337 GND.n336 76
R297 GND.n340 GND.n339 76
R298 GND.n343 GND.n342 76
R299 GND.n346 GND.n345 76
R300 GND.n349 GND.n348 76
R301 GND.n352 GND.n351 76
R302 GND.n355 GND.n354 76
R303 GND.n358 GND.n357 76
R304 GND.n361 GND.n360 76
R305 GND.n366 GND.n365 76
R306 GND.n369 GND.n368 76
R307 GND.n372 GND.n371 76
R308 GND.n379 GND.n378 76
R309 GND.n382 GND.n381 76
R310 GND.n385 GND.n384 76
R311 GND.n388 GND.n387 76
R312 GND.n391 GND.n390 76
R313 GND.n394 GND.n393 76
R314 GND.n397 GND.n396 76
R315 GND.n400 GND.n399 76
R316 GND.n403 GND.n402 76
R317 GND.n408 GND.n407 76
R318 GND.n411 GND.n410 76
R319 GND.n414 GND.n413 76
R320 GND.n421 GND.n420 76
R321 GND.n424 GND.n423 76
R322 GND.n427 GND.n426 76
R323 GND.n430 GND.n429 76
R324 GND.n433 GND.n432 76
R325 GND.n436 GND.n435 76
R326 GND.n439 GND.n438 76
R327 GND.n442 GND.n441 76
R328 GND.n445 GND.n444 76
R329 GND.n882 GND.n881 76
R330 GND.n877 GND.n876 76
R331 GND.n874 GND.n873 76
R332 GND.n867 GND.n866 76
R333 GND.n864 GND.n863 76
R334 GND.n861 GND.n860 76
R335 GND.n858 GND.n857 76
R336 GND.n855 GND.n854 76
R337 GND.n852 GND.n851 76
R338 GND.n849 GND.n848 76
R339 GND.n846 GND.n845 76
R340 GND.n843 GND.n842 76
R341 GND.n840 GND.n839 76
R342 GND.n835 GND.n834 76
R343 GND.n832 GND.n831 76
R344 GND.n825 GND.n824 76
R345 GND.n822 GND.n821 76
R346 GND.n819 GND.n818 76
R347 GND.n816 GND.n815 76
R348 GND.n813 GND.n812 76
R349 GND.n810 GND.n809 76
R350 GND.n807 GND.n806 76
R351 GND.n804 GND.n803 76
R352 GND.n801 GND.n800 76
R353 GND.n798 GND.n797 76
R354 GND.n790 GND.n789 76
R355 GND.n787 GND.n786 76
R356 GND.n780 GND.n779 76
R357 GND.n777 GND.n776 76
R358 GND.n774 GND.n773 76
R359 GND.n771 GND.n770 76
R360 GND.n768 GND.n767 76
R361 GND.n765 GND.n764 76
R362 GND.n762 GND.n761 76
R363 GND.n759 GND.n758 76
R364 GND.n756 GND.n755 76
R365 GND.n753 GND.n752 76
R366 GND.n748 GND.n747 76
R367 GND.n745 GND.n744 76
R368 GND.n738 GND.n737 76
R369 GND.n735 GND.n734 76
R370 GND.n732 GND.n731 76
R371 GND.n729 GND.n728 76
R372 GND.n726 GND.n725 76
R373 GND.n723 GND.n722 76
R374 GND.n720 GND.n719 76
R375 GND.n717 GND.n716 76
R376 GND.n714 GND.n713 76
R377 GND.n711 GND.n710 76
R378 GND.n703 GND.n702 76
R379 GND.n700 GND.n699 76
R380 GND.n693 GND.n692 76
R381 GND.n690 GND.n689 76
R382 GND.n687 GND.n686 76
R383 GND.n684 GND.n683 76
R384 GND.n681 GND.n680 76
R385 GND.n678 GND.n677 76
R386 GND.n675 GND.n674 76
R387 GND.n672 GND.n671 76
R388 GND.n669 GND.n668 76
R389 GND.n666 GND.n665 76
R390 GND.n661 GND.n660 76
R391 GND.n658 GND.n657 76
R392 GND.n651 GND.n650 76
R393 GND.n648 GND.n647 76
R394 GND.n645 GND.n644 76
R395 GND.n642 GND.n641 76
R396 GND.n639 GND.n638 76
R397 GND.n636 GND.n635 76
R398 GND.n633 GND.n632 76
R399 GND.n630 GND.n629 76
R400 GND.n627 GND.n626 76
R401 GND.n624 GND.n623 76
R402 GND.n619 GND.n618 76
R403 GND.n616 GND.n615 76
R404 GND.n609 GND.n608 76
R405 GND.n606 GND.n605 76
R406 GND.n603 GND.n602 76
R407 GND.n600 GND.n599 76
R408 GND.n597 GND.n596 76
R409 GND.n594 GND.n593 76
R410 GND.n591 GND.n590 76
R411 GND.n588 GND.n587 76
R412 GND.n585 GND.n584 76
R413 GND.n582 GND.n581 76
R414 GND.n577 GND.n576 76
R415 GND.n574 GND.n573 76
R416 GND.n567 GND.n566 76
R417 GND.n564 GND.n563 76
R418 GND.n561 GND.n560 76
R419 GND.n558 GND.n557 76
R420 GND.n555 GND.n554 76
R421 GND.n552 GND.n551 76
R422 GND.n549 GND.n548 76
R423 GND.n546 GND.n545 76
R424 GND.n543 GND.n542 76
R425 GND.n540 GND.n539 76
R426 GND.n535 GND.n534 76
R427 GND.n532 GND.n531 76
R428 GND.n525 GND.n524 76
R429 GND.n522 GND.n521 76
R430 GND.n519 GND.n518 76
R431 GND.n516 GND.n515 76
R432 GND.n513 GND.n512 76
R433 GND.n510 GND.n509 76
R434 GND.n507 GND.n506 76
R435 GND.n504 GND.n503 76
R436 GND.n501 GND.n500 76
R437 GND.n498 GND.n497 76
R438 GND.n493 GND.n492 76
R439 GND.n490 GND.n489 76
R440 GND.n483 GND.n482 76
R441 GND.n480 GND.n479 76
R442 GND.n477 GND.n476 76
R443 GND.n474 GND.n473 76
R444 GND.n471 GND.n470 76
R445 GND.n468 GND.n467 76
R446 GND.n465 GND.n464 76
R447 GND.n462 GND.n461 76
R448 GND.n459 GND.n458 76
R449 GND.n456 GND.n455 76
R450 GND.n451 GND.n450 76
R451 GND.n9 GND.n8 76
R452 GND.n17 GND.n16 76
R453 GND.n24 GND.n23 76
R454 GND.n27 GND.n26 76
R455 GND.n34 GND.n33 76
R456 GND.n37 GND.n36 76
R457 GND.n40 GND.n39 76
R458 GND.n43 GND.n42 76
R459 GND.n46 GND.n45 76
R460 GND.n51 GND.n50 76
R461 GND.n54 GND.n53 76
R462 GND.n57 GND.n56 76
R463 GND.n64 GND.n63 76
R464 GND.n67 GND.n66 76
R465 GND.n70 GND.n69 76
R466 GND.n238 GND.n237 64.552
R467 GND.n796 GND.n795 64.552
R468 GND.n709 GND.n708 64.552
R469 GND.n5 GND.n4 35.01
R470 GND.n3 GND.n2 29.127
R471 GND.n237 GND.n236 28.421
R472 GND.n795 GND.n794 28.421
R473 GND.n708 GND.n707 28.421
R474 GND.n237 GND.n235 25.263
R475 GND.n795 GND.n793 25.263
R476 GND.n708 GND.n706 25.263
R477 GND.n235 GND.n234 24.383
R478 GND.n793 GND.n792 24.383
R479 GND.n706 GND.n705 24.383
R480 GND.n12 GND.t15 20.794
R481 GND.n6 GND.n5 19.735
R482 GND.n14 GND.n13 19.735
R483 GND.n21 GND.n20 19.735
R484 GND.n5 GND.n3 19.017
R485 GND.n33 GND.n31 14.167
R486 GND.n63 GND.n61 14.167
R487 GND.n93 GND.n91 14.167
R488 GND.n123 GND.n121 14.167
R489 GND.n165 GND.n163 14.167
R490 GND.n207 GND.n205 14.167
R491 GND.n252 GND.n250 14.167
R492 GND.n294 GND.n292 14.167
R493 GND.n336 GND.n334 14.167
R494 GND.n378 GND.n376 14.167
R495 GND.n420 GND.n418 14.167
R496 GND.n873 GND.n872 14.167
R497 GND.n831 GND.n830 14.167
R498 GND.n786 GND.n785 14.167
R499 GND.n744 GND.n743 14.167
R500 GND.n699 GND.n698 14.167
R501 GND.n657 GND.n656 14.167
R502 GND.n615 GND.n614 14.167
R503 GND.n573 GND.n572 14.167
R504 GND.n531 GND.n530 14.167
R505 GND.n489 GND.n488 14.167
R506 GND.n450 GND.n449 13.653
R507 GND.n455 GND.n452 13.653
R508 GND.n458 GND.n457 13.653
R509 GND.n461 GND.n460 13.653
R510 GND.n464 GND.n463 13.653
R511 GND.n467 GND.n466 13.653
R512 GND.n470 GND.n469 13.653
R513 GND.n473 GND.n472 13.653
R514 GND.n476 GND.n475 13.653
R515 GND.n479 GND.n478 13.653
R516 GND.n482 GND.n481 13.653
R517 GND.n489 GND.n484 13.653
R518 GND.n492 GND.n491 13.653
R519 GND.n497 GND.n494 13.653
R520 GND.n500 GND.n499 13.653
R521 GND.n503 GND.n502 13.653
R522 GND.n506 GND.n505 13.653
R523 GND.n509 GND.n508 13.653
R524 GND.n512 GND.n511 13.653
R525 GND.n515 GND.n514 13.653
R526 GND.n518 GND.n517 13.653
R527 GND.n521 GND.n520 13.653
R528 GND.n524 GND.n523 13.653
R529 GND.n531 GND.n526 13.653
R530 GND.n534 GND.n533 13.653
R531 GND.n539 GND.n536 13.653
R532 GND.n542 GND.n541 13.653
R533 GND.n545 GND.n544 13.653
R534 GND.n548 GND.n547 13.653
R535 GND.n551 GND.n550 13.653
R536 GND.n554 GND.n553 13.653
R537 GND.n557 GND.n556 13.653
R538 GND.n560 GND.n559 13.653
R539 GND.n563 GND.n562 13.653
R540 GND.n566 GND.n565 13.653
R541 GND.n573 GND.n568 13.653
R542 GND.n576 GND.n575 13.653
R543 GND.n581 GND.n578 13.653
R544 GND.n584 GND.n583 13.653
R545 GND.n587 GND.n586 13.653
R546 GND.n590 GND.n589 13.653
R547 GND.n593 GND.n592 13.653
R548 GND.n596 GND.n595 13.653
R549 GND.n599 GND.n598 13.653
R550 GND.n602 GND.n601 13.653
R551 GND.n605 GND.n604 13.653
R552 GND.n608 GND.n607 13.653
R553 GND.n615 GND.n610 13.653
R554 GND.n618 GND.n617 13.653
R555 GND.n623 GND.n620 13.653
R556 GND.n626 GND.n625 13.653
R557 GND.n629 GND.n628 13.653
R558 GND.n632 GND.n631 13.653
R559 GND.n635 GND.n634 13.653